
//   run_parallel_cfdemSolverPiso_ErgunTestMPI_CFDDEM   //

/home/tigerisking/CFDEM/CFDEMcoupling-PUBLIC-v2506/tutorials/cfdemSolverPiso/ErgunTestMPI/CFD

/*---------------------------------------------------------------------------*\
| =========                 |                                                 |
| \\      /  F ield         | OpenFOAM: The Open Source CFD Toolbox           |
|  \\    /   O peration     | Version:  2506                                  |
|   \\  /    A nd           | Website:  www.openfoam.com                      |
|    \\/     M anipulation  |                                                 |
\*---------------------------------------------------------------------------*/
Build  : 615aae61d7-20250627 OPENFOAM=2506 version=v2506
Arch   : "LSB;label=32;scalar=64"
Exec   : cfdemSolverPiso -parallel
Date   : Aug 25 2025
Time   : 21:10:59
Host   : ae447-9214
PID    : 36058
I/O    : uncollated
Case   : /home/tigerisking/CFDEM/CFDEMcoupling-PUBLIC-v2506/tutorials/cfdemSolverPiso/ErgunTestMPI/CFD
nProcs : 4
Hosts  :
(
    (ae447-9214 4)
)
Pstream initialized with:
    node communication : off [type=host] (4 ranks, 1 nodes)
    topology controls  : none
    consensus exchange : 0 (tuning: 0)
    exchange algorithm : 0
    commsType          : nonBlocking
    polling iterations : 0
trapFpe: Floating point exception trapping enabled (FOAM_SIGFPE).
fileModificationChecking : Monitoring run-time modified files using timeStampMaster (fileModificationSkew 5, maxFileModificationPolls 20)
allowSystemOperations : Allowing user-supplied system call operations

// * * * * * * * * * * * * * * * * * * * * * * * * * * * * * * * * * * * * * //
Create time

--> FOAM Warning : 
    From static Foam::IOstreamOption::compressionType Foam::IOstreamOption::compressionEnum(const Foam::word&, Foam::IOstreamOption::compressionType)
    in file db/options/IOstreamOption.C at line 189
    Unknown compression specifier 'uncompressed' using compression off
Create mesh for time = 0


PISO: Operating solver in PISO mode

Reading field p

Reading physical velocity field U
Note: only if voidfraction at boundary is 1, U is superficial velocity!!!


Reading momentum exchange field Ksl


Reading voidfraction field voidfraction = (Vgas/Vparticle)

Reading particle velocity field Us


Creating density field rho

Reading/calculating face flux field phi

Generating interstitial face flux field phiByVoidfraction

Selecting incompressible transport model Newtonian
Selecting turbulence model type laminar
Selecting laminar stress model Stokes
No finite volume options present

Reading g_new
Selecting locateModel engine
Selecting dataExchangeModel twoWayMPI
Starting up LIGGGHTS for first time execution
Executing input script '../DEM/in.liggghts_run'
LIGGGHTS (Version LIGGGHTS-PUBLIC 3.8.0, compiled 2025-08-03-14:45:38 by tigerisking, git commit bbd23c8521fe0a4f3f5bfd0d3dc9a7dddd68d90b)
log             ../DEM/log.liggghts

atom_style      granular
atom_modify     map array
communicate     single vel yes

boundary        m m m
newton          off

units           si
processors      2 2 1

# read the restart file
read_restart    ../DEM/post/restart/liggghts.restart
Reading restart file ...
version 3 8
version 3 8
version 3 8
WARNING: Restart file version does not match LIGGGHTS version (../read_restart.cpp:507)
   --> restart file = Version LIGGGHTS-PUBLIC 3.8.0, compiled 2025-08-03-14:40:07 by tigerisking, git commit bbd23c8521fe0a4f3f5bfd0d3dc9a7dddd68d90b
   --> LIGGGHTS = Version LIGGGHTS-PUBLIC 3.8.0, compiled 2025-08-03-14:45:38 by tigerisking, git commit bbd23c8521fe0a4f3f5bfd0d3dc9a7dddd68d90b
version 3 8
WARNING: Restart file used different 3d processor grid (../read_restart.cpp:587)
  orthogonal box = (-0.015 -0.015 -0.001) to (0.015 0.015 0.0554)
  2 by 2 by 1 MPI processor grid
  10000 atoms

neighbor        0.0005 bin
neigh_modify    delay 0

# Material properties required for granular pair styles

fix         m1 all property/global youngsModulus peratomtype 5.e6
fix         m2 all property/global poissonsRatio peratomtype 0.45
fix         m3 all property/global coefficientRestitution peratomtypepair 1 0.3
fix         m4 all property/global coefficientFriction peratomtypepair 1 0.5

# pair style
pair_style  gran model hertz tangential history # Hertzian without cohesion
pair_coeff  * *

# timestep, gravity
timestep    0.00001
fix         gravi all gravity 9.81 vector 0.0 0.0 -1.0

# walls
fix         zwalls1 all wall/gran model hertz tangential history primitive type 1  zplane 0.0
Resetting global state of Fix history_zwalls1 Style property/atom from restart file info
Resetting per-atom state of Fix history_zwalls1 Style property/atom from restart file info
fix         zwalls2 all wall/gran model hertz tangential history primitive type 1  zplane 0.0553
Resetting global state of Fix history_zwalls2 Style property/atom from restart file info
Resetting per-atom state of Fix history_zwalls2 Style property/atom from restart file info
fix         cylwalls all wall/gran model hertz tangential history primitive type 1 zcylinder 0.01385 0. 0.
Resetting global state of Fix history_cylwalls Style property/atom from restart file info
Resetting per-atom state of Fix history_cylwalls Style property/atom from restart file info

# cfd coupling
fix         cfd all couple/cfd couple_every 100 mpi
couple_every as specified in LIGGGHTS is overriden by calling external program (../fix_cfd_coupling.cpp:114)
fix         cfd2 all couple/cfd/force/implicit
#fix         cfd2 all couple/cfd/force/accumulator RongDrag 10 1.5e-3
#fix         cfd2 all couple/cfd/force/implicit/accumulated #CrankNicolson 0.5

# apply nve integration to all particles that are inserted as single particles
fix         integr all nve/sphere

# center of mass
compute     centerOfMass all com

# compute explicit dragforce
compute     explDrag all reduce update_on_run_end yes sum f_dragforce[1] f_dragforce[2] f_dragforce[3]

# sum of explicit and implicit drag force given from CFD to DEM
variable    totalDragX equal f_cfd2[1]
variable    totalDragY equal f_cfd2[2]
variable    totalDragZ equal f_cfd2[3]

# explicit drag force given from CFD to DEM
variable    explicitDragX equal c_explDrag[1]
variable    explicitDragY equal c_explDrag[2]
variable    explicitDragZ equal c_explDrag[3]

variable    time equal step*dt
fix         extra all print 10 "${time} ${explicitDragX} ${explicitDragY} ${explicitDragZ} ${totalDragX} ${totalDragY} ${totalDragZ}" file ../DEM/post/forces.txt title "# time expDrag(X Y Z) totDrag(X Y Z)"

# screen output
compute         rke all erotate/sphere
thermo_style    custom step atoms ke c_rke vol c_centerOfMass[3] c_explDrag[1] c_explDrag[2] c_explDrag[3] f_cfd2[1] f_cfd2[2] f_cfd2[3]
thermo          10
thermo_modify   lost ignore norm no

dump            dmp all custom 5000 ../DEM/post/dump*.liggghts_run id type x y z vx vy vz fx fy fz f_dragforce[1] f_dragforce[2] f_dragforce[3] radius
#dump            dmp all custom/vtk 5000 ../DEM/post/dump_liggghts_run.*.vtk id type x y z vx vy vz fx fy fz f_dragforce[1] f_dragforce[2] f_dragforce[3] radius

run             0
Resetting global state of Fix contacthistory Style contacthistory from restart file info
Resetting per-atom state of Fix contacthistory Style contacthistory from restart file info
Setting up run at Mon Aug 25 21:10:59 2025

Memory usage per processor = 11.7592 Mbytes
    Step    Atoms         KinEng            rke         Volume       centerOf       explDrag       explDrag       explDrag        cfd2[1]        cfd2[2]        cfd2[3] 
   10000    10000  7.4569765e-08  6.0588027e-08      5.076e-05   0.0075796412              0              0              0              0              0              0 
Loop time of 2.4195e-06 on 4 procs for 0 steps with 10000 atoms, finish time Mon Aug 25 21:10:59 2025


Pair  time (%) = 0 (0)
Neigh time (%) = 0 (0)
Comm  time (%) = 0 (0)
Outpt time (%) = 0 (0)
Other time (%) = 2.4195e-06 (100)

Nlocal:    2500 ave 2510 max 2494 min
Histogram: 1 1 0 1 0 0 0 0 0 1
Nghost:    736.75 ave 741 max 727 min
Histogram: 1 0 0 0 0 0 0 0 1 2
Neighs:    17459 ave 17527 max 17428 min
Histogram: 2 0 1 0 0 0 0 0 0 1

Total # of neighbors = 69836
Ave neighs/atom = 6.9836
Neighbor list builds = 0
Dangerous builds = 0
Selecting IOModel basicIO
Selecting probeModel off
Selecting voidFractionModel divided
  Variable volScale was not specified, using default 1 for all particle templates.
  Note: for more than 10 particle templates, please specify volScale manually.
Selecting averagingModel dense
Selecting clockModel off
start clock measurement at t >0.001
Selecting smoothingModel off
Selecting meshMotionModel noMeshMotion

CFDEMcoupling version: cfdem-3.8.1
, compatible to LIGGGHTS version: 3.8.0
, compatible to OF version and build: 6-commit-af7d7f427be78e9b9beb6aceca8fe7d5d4636876

You are currently using:
CFDEM build: 3.8.1-dirty

cg is set to: 1
LIGGGHTS hosts 1 atom types.
If BC are important, please provide volScalarFields -imp/expParticleForces-
ignoring ddt(voidfraction)
Selecting momCoupleModel implicitCouple

implicit momentum exchange field calculate if alphaP larger than : 1
Selecting forceModel gradPForce
 No forceSubModel specified - setting to default forceSubModel ImEx.
 Selecting forceSubModel ImEx
 reading switches:
  looking for treatForceExplicit ...  not found in dict, using default. treatForceExplicit = true
  looking for verbose ...  not found in dict, using default. verbose = false
  looking for interpolation ...  found in dict. interpolation = true

cfdemCloud is registering field 'radius', and type 'scalar-atom' ...
cfdemCloud adds field 'radius' at end of list.
cfdemCloud is registering field 'x', and type 'vector-atom' ...
cfdemCloud adds field 'x' at end of list.
cfdemCloud is registering field 'v', and type 'vector-atom' ...
cfdemCloud adds field 'v' at end of list.
cfdemCloud is registering field 'dragforce', and type 'vector-atom' ...
cfdemCloud adds field 'dragforce' at end of list.
Selecting forceModel viscForce
 No forceSubModel specified - setting to default forceSubModel ImEx.
 Selecting forceSubModel ImEx
 reading switches:
  looking for treatForceExplicit ...  not found in dict, using default. treatForceExplicit = true
  looking for verbose ...  not found in dict, using default. verbose = false
  looking for interpolation ...  found in dict. interpolation = true
  looking for scalarViscosity ...  not found in dict, using default. scalarViscosity = false

cfdemCloud is registering field 'radius', and type 'scalar-atom' ...
cfdemCloud already found field 'radius' at position: 0
cfdemCloud is registering field 'x', and type 'vector-atom' ...
cfdemCloud already found field 'x' at position: 1
cfdemCloud is registering field 'v', and type 'vector-atom' ...
cfdemCloud already found field 'v' at position: 2
cfdemCloud is registering field 'dragforce', and type 'vector-atom' ...
cfdemCloud already found field 'dragforce' at position: 3
Selecting forceModel KochHillDrag
 No forceSubModel specified - setting to default forceSubModel ImEx.
 Selecting forceSubModel ImEx
 reading switches:
  looking for treatForceExplicit ...  not found in dict, using default. treatForceExplicit = false
  looking for implForceDEM ...  not found in dict, using default. --> FOAM Warning : 
 You are using the default value for 'implForceDEM' - beware that in CFDEMcoupling versions newer than 3.8.0 this default value has changed from (previously) false to (now) true!
implForceDEM = true
  looking for verbose ...  not found in dict, using default. verbose = false
  looking for interpolation ...  found in dict. interpolation = true
  looking for implForceDEMaccumulated ...  not found in dict, using default. implForceDEMaccumulated = false
  looking for scalarViscosity ...  not found in dict, using default. scalarViscosity = false

cfdemCloud is registering field 'radius', and type 'scalar-atom' ...
cfdemCloud already found field 'radius' at position: 0
cfdemCloud is registering field 'x', and type 'vector-atom' ...
cfdemCloud already found field 'x' at position: 1
cfdemCloud is registering field 'v', and type 'vector-atom' ...
cfdemCloud already found field 'v' at position: 2
cfdemCloud is registering field 'Ksl', and type 'scalar-atom' ...
cfdemCloud adds field 'Ksl' at end of list.
cfdemCloud is registering field 'uf', and type 'vector-atom' ...
cfdemCloud adds field 'uf' at end of list.
Selecting forceModel Archimedes
 No forceSubModel specified - setting to default forceSubModel ImEx.
 Selecting forceSubModel ImEx
 reading switches:
  looking for verbose ...  not found in dict, using default. verbose = false
  looking for interpolation ...  not found in dict, using default. interpolation = false

cfdemCloud is registering field 'radius', and type 'scalar-atom' ...
cfdemCloud already found field 'radius' at position: 0
cfdemCloud is registering field 'x', and type 'vector-atom' ...
cfdemCloud already found field 'x' at position: 1
cfdemCloud is registering field 'v', and type 'vector-atom' ...
cfdemCloud already found field 'v' at position: 2
cfdemCloud is registering field 'dragforce', and type 'vector-atom' ...
cfdemCloud already found field 'dragforce' at position: 3
Selecting forceModel fieldStore
 No forceSubModel specified - setting to default forceSubModel ImEx.
 Selecting forceSubModel ImEx
Creating field stored_U
Selecting liggghtsCommandModel runLiggghts ,provide dicts, numbered from 0 to n
Selecting liggghtsCommandModel writeLiggghts ,provide dicts, numbered from 0 to n
   Found a dictionary writeLiggghtsProps, reading user defined values (if specified):
   Using user defined path to write LIGGGHTS restart file: "../DEM/post/restart"
     overwrite = on
     path = "../DEM/post/restart"
     writeName = "liggghts.restartCFDEM" (Restart file is written to write_restart ../DEM/post/restart/liggghts.restartCFDEM .
     writeLastOnly = off
     writeEvery = 1 (Restart file is written every 1 CFD's writeInterval.)
     verbose = false
solving volume averaged Navier Stokes equations of type A

Starting time loop

    This keyword is 108 months old.

    This keyword is 108 months old.

    This keyword is 108 months old.

--> FOAM Warning : 
    From void Foam::timeControl::read(const Foam::dictionary&)
    in file db/functionObjects/timeControl/timeControl.C at line 131
    Reading "system/controlDict/functions/probes" at line 63 to 79
    Found deprecated 'outputControl'
    Use 'writeControl' with 'writeInterval'
    This keyword is 108 months old.

--> FOAM IOWarning :
    Found [v1612] 'functionObjectLibs' entry instead of 'libs' in dictionary "system/controlDict/functions/probes"

    This keyword is 102 months old.

    This keyword is 108 months old.

    This keyword is 108 months old.

    This keyword is 108 months old.

    This keyword is 108 months old.

--> FOAM IOWarning :
    Found [v1612] 'functionObjectLibs' entry instead of 'libs' in dictionary "system/controlDict/functions/volFlow_inlet"

    This keyword is 102 months old.

--> FOAM Warning : 
    From void Foam::timeControl::read(const Foam::dictionary&)
    in file db/functionObjects/timeControl/timeControl.C at line 131
    Reading "system/controlDict/functions/volFlow_inlet" at line 84 to 96
    Found deprecated 'outputControl'
    Use 'writeControl' with 'writeInterval'
    This keyword is 108 months old.

    This keyword is 108 months old.

    This keyword is 108 months old.

surfaceFieldValue volFlow_inlet:
    operation     = sum


--> FOAM Warning : 
    From void Foam::timeControl::read(const Foam::dictionary&)
    in file db/functionObjects/timeControl/timeControl.C at line 131
    Reading "system/controlDict/functions/volFlow_outlet" at line 102 to 114
    Found deprecated 'outputControl'
    Use 'writeControl' with 'writeInterval'
    This keyword is 108 months old.

--> FOAM IOWarning :
    Found [v1612] 'functionObjectLibs' entry instead of 'libs' in dictionary "system/controlDict/functions/volFlow_outlet"

    This keyword is 102 months old.

    This keyword is 108 months old.

    This keyword is 108 months old.

    This keyword is 108 months old.

    This keyword is 108 months old.

--> FOAM IOWarning :
    Found [v1612] 'functionObjectLibs' entry instead of 'libs' in dictionary "system/controlDict/functions/volFlow_wall"

    This keyword is 102 months old.

surfaceFieldValue volFlow_outlet:
    operation     = sum


--> FOAM Warning : 
    From void Foam::timeControl::read(const Foam::dictionary&)
    in file db/functionObjects/timeControl/timeControl.C at line 131
    Reading "system/controlDict/functions/volFlow_wall" at line 120 to 132
    Found deprecated 'outputControl'
    Use 'writeControl' with 'writeInterval'
surfaceFieldValue volFlow_wall:
    operation     = sum


Time = 0.0005

Courant Number mean: 9.04159e-06 max: 0.000216998

 Coupling...
Starting up LIGGGHTS
Executing command: 'run 50    '
run 50    
Setting up run at Mon Aug 25 21:10:59 2025

Memory usage per processor = 11.7595 Mbytes
    Step    Atoms         KinEng            rke         Volume       centerOf       explDrag       explDrag       explDrag        cfd2[1]        cfd2[2]        cfd2[3] 
   10000    10000  7.4569765e-08  6.0588027e-08      5.076e-05   0.0075796412              0              0              0              0              0              0 
0.1001 0 0 0 0 0 0
   10010    10000  7.3779817e-08  5.9222481e-08      5.076e-05   0.0075796308              0              0              0              0              0              0 
0.1002 0 0 0 0 0 0
   10020    10000   7.365705e-08  5.8864429e-08      5.076e-05   0.0075796209              0              0              0              0              0              0 
0.1003 0 0 0 0 0 0
   10030    10000  7.3707065e-08  5.8392782e-08      5.076e-05   0.0075796117              0              0              0              0              0              0 
0.1004 0 0 0 0 0 0
   10040    10000   7.385579e-08  5.8104849e-08      5.076e-05   0.0075796029              0              0              0              0              0              0 
0.1005 0 0 0 0 0 0
   10050    10000  7.4058977e-08  5.7901882e-08      5.076e-05   0.0075795946              0              0              0              0              0              0 
Loop time of 0.0283697 on 4 procs for 50 steps with 10000 atoms, finish time Mon Aug 25 21:10:59 2025


Pair  time (%) = 0.0218874 (77.1507)
Neigh time (%) = 0 (0)
Comm  time (%) = 0.0017574 (6.19463)
Outpt time (%) = 0.000461251 (1.62586)
Other time (%) = 0.00426362 (15.0288)

Nlocal:    2500 ave 2510 max 2494 min
Histogram: 1 1 0 1 0 0 0 0 0 1
Nghost:    736.75 ave 741 max 727 min
Histogram: 1 0 0 0 0 0 0 0 1 2
Neighs:    17459 ave 17527 max 17428 min
Histogram: 2 0 1 0 0 0 0 0 0 1

Total # of neighbors = 69836
Ave neighs/atom = 6.9836
Neighbor list builds = 0
Dangerous builds = 0
LIGGGHTS finished
get field with name 'radius' at position: 0
get field with name 'x' at position: 1
get field with name 'v' at position: 2

 timeStepFraction() = 1
Zeroizing field with name 'dragforce' at position: 3 with type vector-atom
Zeroizing field with name 'Ksl' at position: 4 with type scalar-atom
Zeroizing field with name 'uf' at position: 5 with type vector-atom
giveData field with name 'dragforce' at position: 3
giveData field with name 'Ksl' at position: 4
giveData field with name 'uf' at position: 5
DILUPBiCG:  Solving for Ux, Initial residual = 1, Final residual = 0.00117537, No Iterations 1
DILUPBiCG:  Solving for Uy, Initial residual = 1, Final residual = 0.000946278, No Iterations 1
DILUPBiCG:  Solving for Uz, Initial residual = 1, Final residual = 0.00101125, No Iterations 1
DICPCG:  Solving for p, Initial residual = 1, Final residual = 0.0960109, No Iterations 24
DICPCG:  Solving for p, Initial residual = 0.00140193, Final residual = 0.000107803, No Iterations 5
time step continuity errors : sum local = 4.33562e-07, global = -5.01685e-08, cumulative = -5.01685e-08
DICPCG:  Solving for p, Initial residual = 0.000976356, Final residual = 6.89413e-05, No Iterations 20
DICPCG:  Solving for p, Initial residual = 7.82184e-05, Final residual = 6.53297e-06, No Iterations 8
time step continuity errors : sum local = 2.55115e-08, global = 4.5189e-09, cumulative = -4.56496e-08
DICPCG:  Solving for p, Initial residual = 2.81028e-05, Final residual = 2.39983e-06, No Iterations 18
DICPCG:  Solving for p, Initial residual = 3.96616e-06, Final residual = 9.12637e-07, No Iterations 5
time step continuity errors : sum local = 3.56221e-09, global = -1.83321e-10, cumulative = -4.58329e-08
DICPCG:  Solving for p, Initial residual = 1.69711e-06, Final residual = 9.71044e-07, No Iterations 1
DICPCG:  Solving for p, Initial residual = 9.79681e-07, Final residual = 9.79681e-07, No Iterations 0
time step continuity errors : sum local = 3.8239e-09, global = 1.67268e-10, cumulative = -4.56656e-08
ExecutionTime = 0.2 s  ClockTime = 0 s

surfaceFieldValue volFlow_inlet write:
    total faces   = 192
    total area    = 0.000594448

    sum(inlet) of phi = -1.2493e-06

surfaceFieldValue volFlow_outlet write:
    total faces   = 192
    total area    = 0.000594448

    sum(outlet) of phi = 1.27987e-06

surfaceFieldValue volFlow_wall write:
    total faces   = 768
    total area    = 0.00478725

    sum(wall) of phi = -3.05557e-08

Time = 0.001

Courant Number mean: 0.000511764 max: 0.00263094

 Coupling...
Starting up LIGGGHTS
Executing command: 'run 50    '
run 50    
Setting up run at Mon Aug 25 21:10:59 2025

Memory usage per processor = 11.7595 Mbytes
    Step    Atoms         KinEng            rke         Volume       centerOf       explDrag       explDrag       explDrag        cfd2[1]        cfd2[2]        cfd2[3] 
   10050    10000  7.4058977e-08  5.7901882e-08      5.076e-05   0.0075795946  1.9402808e-20  4.7369899e-22  0.00051510043 -1.8977086e-05 -2.4378334e-05   0.0005634205 
0.1006 1.94028081812225e-20 4.73698992166336e-22 0.000515100431923178 -1.62345370009496e-05 -1.79426528799252e-05 0.000549397104964472
   10060    10000  7.2625348e-08  5.7199596e-08      5.076e-05    0.007579587  1.9402808e-20  4.7369899e-22  0.00051510043 -1.6234537e-05 -1.7942653e-05   0.0005493971 
0.1007 1.94028081812225e-20 4.73698992166336e-22 0.000515100431923178 -1.33015541578493e-05 -1.19080815871759e-05 0.000536476514659647
   10070    10000  7.1608001e-08  5.6787488e-08      5.076e-05   0.0075795802  1.9402808e-20  4.7369899e-22  0.00051510043 -1.3301554e-05 -1.1908082e-05  0.00053647651 
0.1008 1.94028081812225e-20 4.73698992166336e-22 0.000515100431923178 -1.03331667961653e-05 -6.73553455436103e-06 0.000525597570751384
   10080    10000  6.9877854e-08  5.6124187e-08      5.076e-05    0.007579574  1.9402808e-20  4.7369899e-22  0.00051510043 -1.0333167e-05 -6.7355346e-06  0.00052559757 
0.1009 1.94028081812225e-20 4.73698992166336e-22 0.000515100431923178 -6.38339548745855e-06 -2.46676734049638e-06 0.000517631572109884
   10090    10000  6.7936071e-08  5.5539804e-08      5.076e-05   0.0075795683  1.9402808e-20  4.7369899e-22  0.00051510043 -6.3833955e-06 -2.4667673e-06  0.00051763157 
CFD Coupling established at step 10100
0.101 1.94028081812225e-20 4.73698992166336e-22 0.000515100431923178 -2.97739315124637e-06 1.1284622536252e-06 0.000511746679420704
   10100    10000  6.6579992e-08  5.5080805e-08      5.076e-05   0.0075795631  1.9402808e-20  4.7369899e-22  0.00051510043 -2.9773932e-06  1.1284623e-06  0.00051174668 
Loop time of 0.0296615 on 4 procs for 50 steps with 10000 atoms, finish time Mon Aug 25 21:10:59 2025


Pair  time (%) = 0.0219124 (73.8749)
Neigh time (%) = 0 (0)
Comm  time (%) = 0.00270037 (9.10396)
Outpt time (%) = 0.00046997 (1.58445)
Other time (%) = 0.00457875 (15.4367)

Nlocal:    2500 ave 2510 max 2494 min
Histogram: 1 1 0 1 0 0 0 0 0 1
Nghost:    736.75 ave 741 max 727 min
Histogram: 1 0 0 0 0 0 0 0 1 2
Neighs:    17458.8 ave 17526 max 17425 min
Histogram: 2 0 0 1 0 0 0 0 0 1

Total # of neighbors = 69835
Ave neighs/atom = 6.9835
Neighbor list builds = 0
Dangerous builds = 0
LIGGGHTS finished
get field with name 'radius' at position: 0
get field with name 'x' at position: 1
get field with name 'v' at position: 2

 timeStepFraction() = 1
Zeroizing field with name 'dragforce' at position: 3 with type vector-atom
Zeroizing field with name 'Ksl' at position: 4 with type scalar-atom
Zeroizing field with name 'uf' at position: 5 with type vector-atom
giveData field with name 'dragforce' at position: 3
giveData field with name 'Ksl' at position: 4
giveData field with name 'uf' at position: 5
DILUPBiCG:  Solving for Ux, Initial residual = 0.217147, Final residual = 0.00021298, No Iterations 1
DILUPBiCG:  Solving for Uy, Initial residual = 0.235219, Final residual = 0.00026311, No Iterations 1
DILUPBiCG:  Solving for Uz, Initial residual = 0.29296, Final residual = 0.00168273, No Iterations 1
DICPCG:  Solving for p, Initial residual = 0.0130371, Final residual = 0.00111687, No Iterations 20
DICPCG:  Solving for p, Initial residual = 0.00160474, Final residual = 0.000131215, No Iterations 10
time step continuity errors : sum local = 3.92455e-07, global = 1.16101e-07, cumulative = 7.04353e-08
DICPCG:  Solving for p, Initial residual = 0.000976808, Final residual = 6.78053e-05, No Iterations 24
DICPCG:  Solving for p, Initial residual = 8.12827e-05, Final residual = 6.62792e-06, No Iterations 8
time step continuity errors : sum local = 2.05897e-08, global = -1.38016e-09, cumulative = 6.90551e-08
DICPCG:  Solving for p, Initial residual = 2.29236e-05, Final residual = 1.84554e-06, No Iterations 22
DICPCG:  Solving for p, Initial residual = 2.82807e-06, Final residual = 7.41395e-07, No Iterations 2
time step continuity errors : sum local = 2.30329e-09, global = 3.11531e-10, cumulative = 6.93667e-08
DICPCG:  Solving for p, Initial residual = 1.54032e-06, Final residual = 9.58762e-07, No Iterations 1
DICPCG:  Solving for p, Initial residual = 9.84351e-07, Final residual = 9.84351e-07, No Iterations 0
time step continuity errors : sum local = 3.05807e-09, global = -4.02257e-10, cumulative = 6.89644e-08
ExecutionTime = 0.26 s  ClockTime = 0 s

surfaceFieldValue volFlow_inlet write:
    sum(inlet) of phi = -1.31272e-06

surfaceFieldValue volFlow_outlet write:
    sum(outlet) of phi = 1.34047e-06

surfaceFieldValue volFlow_wall write:
    sum(wall) of phi = -2.77751e-08

Time = 0.0015

Courant Number mean: 0.000547327 max: 0.00342688

 Coupling...
Starting up LIGGGHTS
Executing command: 'run 50    '
run 50    
Setting up run at Mon Aug 25 21:10:59 2025

Memory usage per processor = 11.7595 Mbytes
    Step    Atoms         KinEng            rke         Volume       centerOf       explDrag       explDrag       explDrag        cfd2[1]        cfd2[2]        cfd2[3] 
   10100    10000  6.6579992e-08  5.5080805e-08      5.076e-05   0.0075795631 -8.2099595e-05  7.7131599e-05      0.0121964 -0.00013805899  0.00013579606     0.01985113 
0.1011 -8.2099595448524e-05 7.71315987198571e-05 0.0121964000701564 -0.000131935755459753 0.000136682969072443 0.0195241322127147
   10110    10000  6.6074857e-08  5.4797669e-08      5.076e-05   0.0075795673 -8.2099595e-05  7.7131599e-05      0.0121964 -0.00013193576  0.00013668297    0.019524132 
0.1012 -8.2099595448524e-05 7.71315987198571e-05 0.0121964000701564 -0.000124474808415475 0.000137319778130038 0.0192102956639876
   10120    10000  6.3738148e-08   5.191754e-08      5.076e-05   0.0075795888 -8.2099595e-05  7.7131599e-05      0.0121964 -0.00012447481  0.00013731978    0.019210296 
0.1013 -8.2099595448524e-05 7.71315987198571e-05 0.0121964000701564 -0.000116770161614326 0.000137167576676626 0.0189293602525342
   10130    10000  6.1192044e-08  4.9561964e-08      5.076e-05   0.0075796261 -8.2099595e-05  7.7131599e-05      0.0121964 -0.00011677016  0.00013716758     0.01892936 
0.1014 -8.2099595448524e-05 7.71315987198571e-05 0.0121964000701564 -0.000109021410719146 0.000138082540486868 0.0186825626760883
   10140    10000  6.0455052e-08  4.9019098e-08      5.076e-05   0.0075796774 -8.2099595e-05  7.7131599e-05      0.0121964 -0.00010902141  0.00013808254    0.018682563 
0.1015 -8.2099595448524e-05 7.71315987198571e-05 0.0121964000701564 -0.000102208446357592 0.000139880056068492 0.0184684383109328
   10150    10000  6.0159038e-08  4.8992466e-08      5.076e-05    0.007579741 -8.2099595e-05  7.7131599e-05      0.0121964 -0.00010220845  0.00013988006    0.018468438 
Loop time of 0.0290423 on 4 procs for 50 steps with 10000 atoms, finish time Mon Aug 25 21:10:59 2025


Pair  time (%) = 0.0218831 (75.349)
Neigh time (%) = 0 (0)
Comm  time (%) = 0.0020999 (7.23049)
Outpt time (%) = 0.000513597 (1.76844)
Other time (%) = 0.00454574 (15.6521)

Nlocal:    2500 ave 2510 max 2494 min
Histogram: 1 1 0 1 0 0 0 0 0 1
Nghost:    736.75 ave 741 max 727 min
Histogram: 1 0 0 0 0 0 0 0 1 2
Neighs:    17459.2 ave 17527 max 17424 min
Histogram: 2 0 0 1 0 0 0 0 0 1

Total # of neighbors = 69837
Ave neighs/atom = 6.9837
Neighbor list builds = 0
Dangerous builds = 0
LIGGGHTS finished
get field with name 'radius' at position: 0
get field with name 'x' at position: 1
get field with name 'v' at position: 2

 timeStepFraction() = 1
Zeroizing field with name 'dragforce' at position: 3 with type vector-atom
Zeroizing field with name 'Ksl' at position: 4 with type scalar-atom
Zeroizing field with name 'uf' at position: 5 with type vector-atom
giveData field with name 'dragforce' at position: 3
giveData field with name 'Ksl' at position: 4
giveData field with name 'uf' at position: 5
DILUPBiCG:  Solving for Ux, Initial residual = 0.167906, Final residual = 0.000139371, No Iterations 1
DILUPBiCG:  Solving for Uy, Initial residual = 0.167529, Final residual = 0.000120658, No Iterations 1
DILUPBiCG:  Solving for Uz, Initial residual = 0.181749, Final residual = 0.000173451, No Iterations 1
DICPCG:  Solving for p, Initial residual = 0.00826595, Final residual = 0.000728626, No Iterations 19
DICPCG:  Solving for p, Initial residual = 0.000822709, Final residual = 7.62126e-05, No Iterations 11
time step continuity errors : sum local = 2.40481e-07, global = -1.21403e-07, cumulative = -5.24384e-08
DICPCG:  Solving for p, Initial residual = 0.00026445, Final residual = 2.34822e-05, No Iterations 22
DICPCG:  Solving for p, Initial residual = 3.37204e-05, Final residual = 3.1964e-06, No Iterations 6
time step continuity errors : sum local = 1.00878e-08, global = 1.11564e-09, cumulative = -5.13227e-08
DICPCG:  Solving for p, Initial residual = 1.12747e-05, Final residual = 8.60456e-07, No Iterations 21
DICPCG:  Solving for p, Initial residual = 1.41981e-06, Final residual = 5.95714e-07, No Iterations 1
time step continuity errors : sum local = 1.87977e-09, global = 6.00857e-11, cumulative = -5.12627e-08
DICPCG:  Solving for p, Initial residual = 7.99913e-07, Final residual = 7.99913e-07, No Iterations 0
DICPCG:  Solving for p, Initial residual = 7.99913e-07, Final residual = 7.99913e-07, No Iterations 0
time step continuity errors : sum local = 2.52413e-09, global = 3.75243e-11, cumulative = -5.12251e-08
ExecutionTime = 0.31 s  ClockTime = 0 s

surfaceFieldValue volFlow_inlet write:
    sum(inlet) of phi = -1.52884e-06

surfaceFieldValue volFlow_outlet write:
    sum(outlet) of phi = 1.54768e-06

surfaceFieldValue volFlow_wall write:
    sum(wall) of phi = -1.88377e-08

Time = 0.002

Courant Number mean: 0.000632845 max: 0.00368813

 Coupling...
Starting up LIGGGHTS
Executing command: 'run 50    '
run 50    
Setting up run at Mon Aug 25 21:10:59 2025

Memory usage per processor = 11.7595 Mbytes
    Step    Atoms         KinEng            rke         Volume       centerOf       explDrag       explDrag       explDrag        cfd2[1]        cfd2[2]        cfd2[3] 
   10150    10000  6.0159038e-08  4.8992466e-08      5.076e-05    0.007579741 -4.9228136e-05    5.43443e-05    0.011281995 -6.5215606e-05  8.2200404e-05    0.017746083 
0.1016 -4.92281364903093e-05 5.43442995492067e-05 0.0112819952122215 -6.17942376150828e-05 8.55530299462746e-05 0.0175847775043658
   10160    10000  5.9253676e-08  4.8808004e-08      5.076e-05   0.0075798149 -4.9228136e-05    5.43443e-05    0.011281995 -6.1794238e-05   8.555303e-05    0.017584778 
0.1017 -4.92281364903093e-05 5.43442995492067e-05 0.0112819952122215 -5.82834694325351e-05 8.97253221852835e-05 0.0174458369575082
   10170    10000  5.8060783e-08  4.8339784e-08      5.076e-05   0.0075798973 -4.9228136e-05    5.43443e-05    0.011281995 -5.8283469e-05  8.9725322e-05    0.017445837 
0.1018 -4.92281364903093e-05 5.43442995492067e-05 0.0112819952122215 -5.47159953862175e-05 9.37464038307019e-05 0.0173337186446961
   10180    10000  5.8078349e-08  4.7976811e-08      5.076e-05   0.0075799867 -4.9228136e-05    5.43443e-05    0.011281995 -5.4715995e-05  9.3746404e-05    0.017333719 
0.1019 -4.92281364903093e-05 5.43442995492067e-05 0.0112819952122215 -5.16911658131269e-05 9.8520038103889e-05 0.0172455951863234
   10190    10000  5.8256261e-08  4.7684741e-08      5.076e-05   0.0075800819 -4.9228136e-05    5.43443e-05    0.011281995 -5.1691166e-05  9.8520038e-05    0.017245595 
CFD Coupling established at step 10200
0.102 -4.92281364903093e-05 5.43442995492067e-05 0.0112819952122215 -4.89483976393778e-05 0.000103261046023752 0.0171786071839092
   10200    10000  5.8149076e-08  4.6649948e-08      5.076e-05   0.0075801819 -4.9228136e-05    5.43443e-05    0.011281995 -4.8948398e-05  0.00010326105    0.017178607 
Loop time of 0.0302762 on 4 procs for 50 steps with 10000 atoms, finish time Mon Aug 25 21:10:59 2025


Pair  time (%) = 0.0220553 (72.8469)
Neigh time (%) = 0 (0)
Comm  time (%) = 0.00251385 (8.30308)
Outpt time (%) = 0.000591145 (1.95251)
Other time (%) = 0.00511591 (16.8975)

Nlocal:    2500 ave 2510 max 2494 min
Histogram: 1 1 0 1 0 0 0 0 0 1
Nghost:    736.75 ave 741 max 727 min
Histogram: 1 0 0 0 0 0 0 0 1 2
Neighs:    17460.8 ave 17528 max 17425 min
Histogram: 2 0 0 1 0 0 0 0 0 1

Total # of neighbors = 69843
Ave neighs/atom = 6.9843
Neighbor list builds = 0
Dangerous builds = 0
LIGGGHTS finished
get field with name 'radius' at position: 0
get field with name 'x' at position: 1
get field with name 'v' at position: 2

 timeStepFraction() = 1
Zeroizing field with name 'dragforce' at position: 3 with type vector-atom
Zeroizing field with name 'Ksl' at position: 4 with type scalar-atom
Zeroizing field with name 'uf' at position: 5 with type vector-atom
giveData field with name 'dragforce' at position: 3
giveData field with name 'Ksl' at position: 4
giveData field with name 'uf' at position: 5
DILUPBiCG:  Solving for Ux, Initial residual = 0.171806, Final residual = 0.000146798, No Iterations 1
DILUPBiCG:  Solving for Uy, Initial residual = 0.168174, Final residual = 0.000132942, No Iterations 1
DILUPBiCG:  Solving for Uz, Initial residual = 0.113437, Final residual = 0.000257368, No Iterations 1
DICPCG:  Solving for p, Initial residual = 0.00739591, Final residual = 0.000550616, No Iterations 24
DICPCG:  Solving for p, Initial residual = 0.000787465, Final residual = 7.26567e-05, No Iterations 7
time step continuity errors : sum local = 1.98006e-07, global = 4.59157e-08, cumulative = -5.30939e-09
DICPCG:  Solving for p, Initial residual = 0.00034727, Final residual = 2.76256e-05, No Iterations 25
DICPCG:  Solving for p, Initial residual = 3.81076e-05, Final residual = 2.97285e-06, No Iterations 8
time step continuity errors : sum local = 8.14406e-09, global = -5.12803e-10, cumulative = -5.82219e-09
DICPCG:  Solving for p, Initial residual = 1.27018e-05, Final residual = 1.19503e-06, No Iterations 20
DICPCG:  Solving for p, Initial residual = 1.86253e-06, Final residual = 8.35519e-07, No Iterations 1
time step continuity errors : sum local = 2.28883e-09, global = -3.57756e-10, cumulative = -6.17995e-09
DICPCG:  Solving for p, Initial residual = 1.10118e-06, Final residual = 8.01062e-07, No Iterations 1
DICPCG:  Solving for p, Initial residual = 8.07263e-07, Final residual = 8.07263e-07, No Iterations 0
time step continuity errors : sum local = 2.21143e-09, global = -4.60571e-10, cumulative = -6.64052e-09
ExecutionTime = 0.36 s  ClockTime = 0 s

surfaceFieldValue volFlow_inlet write:
    sum(inlet) of phi = -1.54118e-06

surfaceFieldValue volFlow_outlet write:
    sum(outlet) of phi = 1.56549e-06

surfaceFieldValue volFlow_wall write:
    sum(wall) of phi = -2.4344e-08

Time = 0.0025

Courant Number mean: 0.000644322 max: 0.00391791

 Coupling...
Starting up LIGGGHTS
Executing command: 'run 50    '
run 50    
Setting up run at Mon Aug 25 21:10:59 2025

Memory usage per processor = 11.7595 Mbytes
    Step    Atoms         KinEng            rke         Volume       centerOf       explDrag       explDrag       explDrag        cfd2[1]        cfd2[2]        cfd2[3] 
   10200    10000  5.8149076e-08  4.6649948e-08      5.076e-05   0.0075801819 -2.4265555e-05  4.6710157e-05    0.011086199 -4.6668491e-05   8.515678e-05    0.018210643 
0.1021 -2.42655553484792e-05 4.67101574389149e-05 0.0110861985140595 -4.50407485397507e-05 8.9630431163855e-05 0.0181492925465592
   10210    10000  5.7696462e-08  4.5611879e-08      5.076e-05   0.0075802861 -2.4265555e-05  4.6710157e-05    0.011086199 -4.5040749e-05  8.9630431e-05    0.018149293 
0.1022 -2.42655553484792e-05 4.67101574389149e-05 0.0110861985140595 -4.27731779323674e-05 9.39250787905165e-05 0.0181016334806793
   10220    10000   5.785483e-08  4.5309189e-08      5.076e-05   0.0075803942 -2.4265555e-05  4.6710157e-05    0.011086199 -4.2773178e-05  9.3925079e-05    0.018101633 
0.1023 -2.42655553484792e-05 4.67101574389149e-05 0.0110861985140595 -4.09714932968276e-05 9.77650833164853e-05 0.0180690767074445
   10230    10000  5.7925903e-08  4.4847963e-08      5.076e-05   0.0075805051 -2.4265555e-05  4.6710157e-05    0.011086199 -4.0971493e-05  9.7765083e-05    0.018069077 
0.1024 -2.42655553484792e-05 4.67101574389149e-05 0.0110861985140595 -3.98780349506946e-05 0.000100821244499956 0.0180491953407375
   10240    10000  5.8120274e-08  4.4471034e-08      5.076e-05   0.0075806183 -2.4265555e-05  4.6710157e-05    0.011086199 -3.9878035e-05  0.00010082124    0.018049195 
0.1025 -2.42655553484792e-05 4.67101574389149e-05 0.0110861985140595 -3.95053134525157e-05 0.000102892789003546 0.0180403081170513
   10250    10000  5.8459794e-08  4.4202529e-08      5.076e-05    0.007580733 -2.4265555e-05  4.6710157e-05    0.011086199 -3.9505313e-05  0.00010289279    0.018040308 
Loop time of 0.0287735 on 4 procs for 50 steps with 10000 atoms, finish time Mon Aug 25 21:10:59 2025


Pair  time (%) = 0.0220277 (76.5553)
Neigh time (%) = 0 (0)
Comm  time (%) = 0.00175382 (6.09526)
Outpt time (%) = 0.000436692 (1.51769)
Other time (%) = 0.00455535 (15.8317)

Nlocal:    2500 ave 2510 max 2494 min
Histogram: 1 1 0 1 0 0 0 0 0 1
Nghost:    737 ave 741 max 727 min
Histogram: 1 0 0 0 0 0 0 0 0 3
Neighs:    17462 ave 17529 max 17426 min
Histogram: 1 1 1 0 0 0 0 0 0 1

Total # of neighbors = 69848
Ave neighs/atom = 6.9848
Neighbor list builds = 0
Dangerous builds = 0
LIGGGHTS finished
get field with name 'radius' at position: 0
get field with name 'x' at position: 1
get field with name 'v' at position: 2

 timeStepFraction() = 1
Zeroizing field with name 'dragforce' at position: 3 with type vector-atom
Zeroizing field with name 'Ksl' at position: 4 with type scalar-atom
Zeroizing field with name 'uf' at position: 5 with type vector-atom
giveData field with name 'dragforce' at position: 3
giveData field with name 'Ksl' at position: 4
giveData field with name 'uf' at position: 5
DILUPBiCG:  Solving for Ux, Initial residual = 0.157789, Final residual = 0.000101028, No Iterations 1
DILUPBiCG:  Solving for Uy, Initial residual = 0.156173, Final residual = 9.9253e-05, No Iterations 1
DILUPBiCG:  Solving for Uz, Initial residual = 0.0824867, Final residual = 7.05909e-05, No Iterations 1
DICPCG:  Solving for p, Initial residual = 0.0102619, Final residual = 0.000900001, No Iterations 4
DICPCG:  Solving for p, Initial residual = 0.000997294, Final residual = 7.17298e-05, No Iterations 24
time step continuity errors : sum local = 1.93824e-07, global = 1.71779e-08, cumulative = 1.05374e-08
DICPCG:  Solving for p, Initial residual = 0.000295789, Final residual = 2.83263e-05, No Iterations 8
DICPCG:  Solving for p, Initial residual = 3.84494e-05, Final residual = 2.79415e-06, No Iterations 22
time step continuity errors : sum local = 7.44919e-09, global = 3.34398e-10, cumulative = 1.08718e-08
DICPCG:  Solving for p, Initial residual = 1.23337e-05, Final residual = 1.22158e-06, No Iterations 9
DICPCG:  Solving for p, Initial residual = 2.12142e-06, Final residual = 8.65073e-07, No Iterations 1
time step continuity errors : sum local = 2.30571e-09, global = 9.78866e-10, cumulative = 1.18507e-08
DICPCG:  Solving for p, Initial residual = 1.15283e-06, Final residual = 8.26295e-07, No Iterations 1
DICPCG:  Solving for p, Initial residual = 8.27668e-07, Final residual = 8.27668e-07, No Iterations 0
time step continuity errors : sum local = 2.20601e-09, global = 1.08169e-09, cumulative = 1.29324e-08
ExecutionTime = 0.42 s  ClockTime = 0 s

surfaceFieldValue volFlow_inlet write:
    sum(inlet) of phi = -1.56337e-06

surfaceFieldValue volFlow_outlet write:
    sum(outlet) of phi = 1.60347e-06

surfaceFieldValue volFlow_wall write:
    sum(wall) of phi = -4.00254e-08

Time = 0.003

Courant Number mean: 0.000663779 max: 0.00442685

 Coupling...
Starting up LIGGGHTS
Executing command: 'run 50    '
run 50    
Setting up run at Mon Aug 25 21:10:59 2025

Memory usage per processor = 11.7595 Mbytes
    Step    Atoms         KinEng            rke         Volume       centerOf       explDrag       explDrag       explDrag        cfd2[1]        cfd2[2]        cfd2[3] 
   10250    10000  5.8459794e-08  4.4202529e-08      5.076e-05    0.007580733  1.2412628e-05   4.970417e-05     0.01024039  4.6985523e-06  9.0593356e-05    0.017171721 
0.1026 1.24126279425088e-05 4.97041699565751e-05 0.010240390207262 4.33449214763208e-06 9.23755707850571e-05 0.0171881624674706
   10260    10000  5.8570867e-08  4.4053502e-08      5.076e-05    0.007580848  1.2412628e-05   4.970417e-05     0.01024039  4.3344921e-06  9.2375571e-05    0.017188162 
0.1027 1.24126279425088e-05 4.97041699565751e-05 0.010240390207262 4.06975522728618e-06 9.40854129139311e-05 0.0172132941886771
   10270    10000  5.8481288e-08  4.3968202e-08      5.076e-05   0.0075809625  1.2412628e-05   4.970417e-05     0.01024039  4.0697552e-06  9.4085413e-05    0.017213294 
0.1028 1.24126279425088e-05 4.97041699565751e-05 0.010240390207262 3.37076234005755e-06 9.56914139120005e-05 0.0172466719854907
   10280    10000  5.7986543e-08  4.3667584e-08      5.076e-05   0.0075810759  1.2412628e-05   4.970417e-05     0.01024039  3.3707623e-06  9.5691414e-05    0.017246672 
0.1029 1.24126279425088e-05 4.97041699565751e-05 0.010240390207262 2.82045736324721e-06 9.68859661003745e-05 0.017285044076248
   10290    10000  5.7918678e-08  4.3547532e-08      5.076e-05   0.0075811878  1.2412628e-05   4.970417e-05     0.01024039  2.8204574e-06  9.6885966e-05    0.017285044 
CFD Coupling established at step 10300
0.103 1.24126279425088e-05 4.97041699565751e-05 0.010240390207262 2.66206963616874e-06 9.72102786974393e-05 0.0173271892962133
   10300    10000   5.783627e-08  4.3442303e-08      5.076e-05   0.0075812979  1.2412628e-05   4.970417e-05     0.01024039  2.6620696e-06  9.7210279e-05    0.017327189 
Loop time of 0.0294752 on 4 procs for 50 steps with 10000 atoms, finish time Mon Aug 25 21:10:59 2025


Pair  time (%) = 0.0221318 (75.0862)
Neigh time (%) = 0 (0)
Comm  time (%) = 0.00187984 (6.37772)
Outpt time (%) = 0.000450733 (1.5292)
Other time (%) = 0.00501281 (17.0069)

Nlocal:    2500 ave 2510 max 2494 min
Histogram: 1 1 0 1 0 0 0 0 0 1
Nghost:    737 ave 741 max 727 min
Histogram: 1 0 0 0 0 0 0 0 0 3
Neighs:    17461.2 ave 17528 max 17424 min
Histogram: 1 1 1 0 0 0 0 0 0 1

Total # of neighbors = 69845
Ave neighs/atom = 6.9845
Neighbor list builds = 0
Dangerous builds = 0
LIGGGHTS finished
get field with name 'radius' at position: 0
get field with name 'x' at position: 1
get field with name 'v' at position: 2

 timeStepFraction() = 1
Zeroizing field with name 'dragforce' at position: 3 with type vector-atom
Zeroizing field with name 'Ksl' at position: 4 with type scalar-atom
Zeroizing field with name 'uf' at position: 5 with type vector-atom
giveData field with name 'dragforce' at position: 3
giveData field with name 'Ksl' at position: 4
giveData field with name 'uf' at position: 5
DILUPBiCG:  Solving for Ux, Initial residual = 0.159411, Final residual = 0.000109859, No Iterations 1
DILUPBiCG:  Solving for Uy, Initial residual = 0.134478, Final residual = 0.000104781, No Iterations 1
DILUPBiCG:  Solving for Uz, Initial residual = 0.0673505, Final residual = 9.97544e-05, No Iterations 1
DICPCG:  Solving for p, Initial residual = 0.0101192, Final residual = 0.000843352, No Iterations 4
DICPCG:  Solving for p, Initial residual = 0.000924666, Final residual = 9.19071e-05, No Iterations 15
time step continuity errors : sum local = 2.4489e-07, global = 1.31762e-07, cumulative = 1.44694e-07
DICPCG:  Solving for p, Initial residual = 0.000251092, Final residual = 2.4526e-05, No Iterations 19
DICPCG:  Solving for p, Initial residual = 3.40026e-05, Final residual = 2.7701e-06, No Iterations 10
time step continuity errors : sum local = 7.54234e-09, global = 1.5585e-09, cumulative = 1.46253e-07
DICPCG:  Solving for p, Initial residual = 1.14316e-05, Final residual = 8.69042e-07, No Iterations 18
DICPCG:  Solving for p, Initial residual = 1.23111e-06, Final residual = 5.3077e-07, No Iterations 1
time step continuity errors : sum local = 1.4454e-09, global = 1.57846e-10, cumulative = 1.46411e-07
DICPCG:  Solving for p, Initial residual = 7.47637e-07, Final residual = 7.47637e-07, No Iterations 0
DICPCG:  Solving for p, Initial residual = 7.47637e-07, Final residual = 7.47637e-07, No Iterations 0
time step continuity errors : sum local = 2.03598e-09, global = -2.88719e-11, cumulative = 1.46382e-07
ExecutionTime = 0.48 s  ClockTime = 0 s

surfaceFieldValue volFlow_inlet write:
    sum(inlet) of phi = -1.57848e-06

surfaceFieldValue volFlow_outlet write:
    sum(outlet) of phi = 1.62638e-06

surfaceFieldValue volFlow_wall write:
    sum(wall) of phi = -4.78989e-08

Time = 0.0035

Courant Number mean: 0.00067831 max: 0.00512313

 Coupling...
Starting up LIGGGHTS
Executing command: 'run 50    '
run 50    
Setting up run at Mon Aug 25 21:10:59 2025

Memory usage per processor = 11.7595 Mbytes
    Step    Atoms         KinEng            rke         Volume       centerOf       explDrag       explDrag       explDrag        cfd2[1]        cfd2[2]        cfd2[3] 
   10300    10000   5.783627e-08  4.3442303e-08      5.076e-05   0.0075812979  5.7044603e-05  4.0095217e-05     0.01018981  7.7079907e-05  5.9081071e-05    0.017383108 
0.1031 5.70446033136942e-05 4.00952167491214e-05 0.0101898102579256 7.59017452508928e-05 5.9726559753068e-05 0.0174253012770081
   10310    10000  5.7251743e-08  4.2924273e-08      5.076e-05   0.0075814057  5.7044603e-05  4.0095217e-05     0.01018981  7.5901745e-05   5.972656e-05    0.017425301 
0.1032 5.70446033136942e-05 4.00952167491214e-05 0.0101898102579256 7.47172723566559e-05 5.99903789816781e-05 0.017472586760542
   10320    10000  5.6677377e-08  4.2578806e-08      5.076e-05    0.007581511  5.7044603e-05  4.0095217e-05     0.01018981  7.4717272e-05  5.9990379e-05    0.017472587 
0.1033 5.70446033136942e-05 4.00952167491214e-05 0.0101898102579256 7.36374848889305e-05 5.9099208129516e-05 0.0175244785069188
   10330    10000      5.546e-08  4.2148374e-08      5.076e-05   0.0075816136  5.7044603e-05  4.0095217e-05     0.01018981  7.3637485e-05  5.9099208e-05    0.017524479 
0.1034 5.70446033136942e-05 4.00952167491214e-05 0.0101898102579256 7.24274282753021e-05 5.8193650278224e-05 0.0175796955189718
   10340    10000  5.4519494e-08  4.2388179e-08      5.076e-05   0.0075817131  5.7044603e-05  4.0095217e-05     0.01018981  7.2427428e-05   5.819365e-05    0.017579696 
0.1035 5.70446033136942e-05 4.00952167491214e-05 0.0101898102579256 7.10879749409258e-05 5.68215021656874e-05 0.0176373004080922
   10350    10000  5.3019348e-08  4.1754194e-08      5.076e-05   0.0075818093  5.7044603e-05  4.0095217e-05     0.01018981  7.1087975e-05  5.6821502e-05      0.0176373 
Loop time of 0.0450185 on 4 procs for 50 steps with 10000 atoms, finish time Mon Aug 25 21:10:59 2025


Pair  time (%) = 0.0290643 (64.5608)
Neigh time (%) = 0 (0)
Comm  time (%) = 0.00217433 (4.82985)
Outpt time (%) = 0.000606539 (1.34731)
Other time (%) = 0.0131734 (29.2621)

Nlocal:    2500 ave 2510 max 2494 min
Histogram: 1 1 0 1 0 0 0 0 0 1
Nghost:    737 ave 741 max 727 min
Histogram: 1 0 0 0 0 0 0 0 0 3
Neighs:    17460 ave 17530 max 17420 min
Histogram: 1 1 0 1 0 0 0 0 0 1

Total # of neighbors = 69840
Ave neighs/atom = 6.984
Neighbor list builds = 0
Dangerous builds = 0
LIGGGHTS finished
get field with name 'radius' at position: 0
get field with name 'x' at position: 1
get field with name 'v' at position: 2

 timeStepFraction() = 1
Zeroizing field with name 'dragforce' at position: 3 with type vector-atom
Zeroizing field with name 'Ksl' at position: 4 with type scalar-atom
Zeroizing field with name 'uf' at position: 5 with type vector-atom
giveData field with name 'dragforce' at position: 3
giveData field with name 'Ksl' at position: 4
giveData field with name 'uf' at position: 5
DILUPBiCG:  Solving for Ux, Initial residual = 0.123574, Final residual = 9.74245e-05, No Iterations 1
DILUPBiCG:  Solving for Uy, Initial residual = 0.121816, Final residual = 9.01507e-05, No Iterations 1
DILUPBiCG:  Solving for Uz, Initial residual = 0.0544637, Final residual = 6.97757e-05, No Iterations 1
DICPCG:  Solving for p, Initial residual = 0.00859419, Final residual = 0.000859368, No Iterations 9
DICPCG:  Solving for p, Initial residual = 0.000923876, Final residual = 7.60493e-05, No Iterations 22
time step continuity errors : sum local = 2.2073e-07, global = -3.68961e-09, cumulative = 1.42692e-07
DICPCG:  Solving for p, Initial residual = 0.000255769, Final residual = 2.33821e-05, No Iterations 22
DICPCG:  Solving for p, Initial residual = 3.32544e-05, Final residual = 3.2473e-06, No Iterations 7
time step continuity errors : sum local = 9.48989e-09, global = 3.02897e-09, cumulative = 1.45721e-07
DICPCG:  Solving for p, Initial residual = 1.04943e-05, Final residual = 8.94026e-07, No Iterations 19
DICPCG:  Solving for p, Initial residual = 1.27697e-06, Final residual = 5.67338e-07, No Iterations 1
time step continuity errors : sum local = 1.65792e-09, global = 6.53112e-11, cumulative = 1.45787e-07
DICPCG:  Solving for p, Initial residual = 7.57932e-07, Final residual = 7.57932e-07, No Iterations 0
DICPCG:  Solving for p, Initial residual = 7.57932e-07, Final residual = 7.57932e-07, No Iterations 0
time step continuity errors : sum local = 2.21489e-09, global = -2.28475e-10, cumulative = 1.45558e-07
ExecutionTime = 0.55 s  ClockTime = 0 s

surfaceFieldValue volFlow_inlet write:
    sum(inlet) of phi = -1.61757e-06

surfaceFieldValue volFlow_outlet write:
    sum(outlet) of phi = 1.67436e-06

surfaceFieldValue volFlow_wall write:
    sum(wall) of phi = -5.68054e-08

Time = 0.004

Courant Number mean: 0.000692918 max: 0.00511749

 Coupling...
Starting up LIGGGHTS
Executing command: 'run 50    '
run 50    
Setting up run at Mon Aug 25 21:10:59 2025

Memory usage per processor = 11.7595 Mbytes
    Step    Atoms         KinEng            rke         Volume       centerOf       explDrag       explDrag       explDrag        cfd2[1]        cfd2[2]        cfd2[3] 
   10350    10000  5.3019348e-08  4.1754194e-08      5.076e-05   0.0075818093  3.6255927e-05  5.3516504e-05    0.010523904  3.3006479e-05  7.4550969e-05    0.018036386 
0.1036 3.62559269198059e-05 5.35165035117049e-05 0.0105239040403315 3.21311591281463e-05 7.23441480399039e-05 0.018087568965463
   10360    10000  5.1979911e-08  4.0906191e-08      5.076e-05   0.0075819023  3.6255927e-05  5.3516504e-05    0.010523904  3.2131159e-05  7.2344148e-05    0.018087569 
0.1037 3.62559269198059e-05 5.35165035117049e-05 0.0105239040403315 3.06826259714836e-05 6.98607622197643e-05 0.0181445228031933
   10370    10000  5.1489616e-08  4.0543469e-08      5.076e-05   0.0075819918  3.6255927e-05  5.3516504e-05    0.010523904  3.0682626e-05  6.9860762e-05    0.018144523 
0.1038 3.62559269198059e-05 5.35165035117049e-05 0.0105239040403315 2.89102602620869e-05 6.70845017628984e-05 0.018204687501621
   10380    10000  5.0982465e-08  4.0243407e-08      5.076e-05   0.0075820778  3.6255927e-05  5.3516504e-05    0.010523904   2.891026e-05  6.7084502e-05    0.018204688 
0.1039 3.62559269198059e-05 5.35165035117049e-05 0.0105239040403315 2.70725397628815e-05 6.37711764310955e-05 0.0182684723470754
   10390    10000  5.0300945e-08  4.0031909e-08      5.076e-05   0.0075821599  3.6255927e-05  5.3516504e-05    0.010523904   2.707254e-05  6.3771176e-05    0.018268472 
CFD Coupling established at step 10400
0.104 3.62559269198059e-05 5.35165035117049e-05 0.0105239040403315 2.52515967735641e-05 6.06320299189114e-05 0.0183365761082472
   10400    10000  4.9751674e-08   3.975018e-08      5.076e-05   0.0075822379  3.6255927e-05  5.3516504e-05    0.010523904  2.5251597e-05   6.063203e-05    0.018336576 
Loop time of 0.0297761 on 4 procs for 50 steps with 10000 atoms, finish time Mon Aug 25 21:10:59 2025


Pair  time (%) = 0.0221915 (74.528)
Neigh time (%) = 0 (0)
Comm  time (%) = 0.00207886 (6.98163)
Outpt time (%) = 0.000467278 (1.5693)
Other time (%) = 0.00503844 (16.9211)

Nlocal:    2500 ave 2510 max 2494 min
Histogram: 1 1 0 1 0 0 0 0 0 1
Nghost:    737 ave 741 max 727 min
Histogram: 1 0 0 0 0 0 0 0 0 3
Neighs:    17460.8 ave 17533 max 17417 min
Histogram: 1 1 0 1 0 0 0 0 0 1

Total # of neighbors = 69843
Ave neighs/atom = 6.9843
Neighbor list builds = 0
Dangerous builds = 0
LIGGGHTS finished
get field with name 'radius' at position: 0
get field with name 'x' at position: 1
get field with name 'v' at position: 2

 timeStepFraction() = 1
Zeroizing field with name 'dragforce' at position: 3 with type vector-atom
Zeroizing field with name 'Ksl' at position: 4 with type scalar-atom
Zeroizing field with name 'uf' at position: 5 with type vector-atom
giveData field with name 'dragforce' at position: 3
giveData field with name 'Ksl' at position: 4
giveData field with name 'uf' at position: 5
DILUPBiCG:  Solving for Ux, Initial residual = 0.114037, Final residual = 9.2477e-05, No Iterations 1
DILUPBiCG:  Solving for Uy, Initial residual = 0.110893, Final residual = 9.13851e-05, No Iterations 1
DILUPBiCG:  Solving for Uz, Initial residual = 0.0564865, Final residual = 7.04277e-05, No Iterations 1
DICPCG:  Solving for p, Initial residual = 0.00613659, Final residual = 0.000545267, No Iterations 12
DICPCG:  Solving for p, Initial residual = 0.000569943, Final residual = 3.89863e-05, No Iterations 19
time step continuity errors : sum local = 1.24446e-07, global = -1.90954e-08, cumulative = 1.26463e-07
DICPCG:  Solving for p, Initial residual = 0.000168299, Final residual = 1.4346e-05, No Iterations 12
DICPCG:  Solving for p, Initial residual = 1.98314e-05, Final residual = 1.59794e-06, No Iterations 20
time step continuity errors : sum local = 5.12103e-09, global = 2.55732e-10, cumulative = 1.26718e-07
DICPCG:  Solving for p, Initial residual = 6.42642e-06, Final residual = 9.56931e-07, No Iterations 7
DICPCG:  Solving for p, Initial residual = 1.1961e-06, Final residual = 6.76846e-07, No Iterations 1
time step continuity errors : sum local = 2.16888e-09, global = 1.01091e-09, cumulative = 1.27729e-07
DICPCG:  Solving for p, Initial residual = 8.23606e-07, Final residual = 8.23606e-07, No Iterations 0
DICPCG:  Solving for p, Initial residual = 8.23606e-07, Final residual = 8.23606e-07, No Iterations 0
time step continuity errors : sum local = 2.63916e-09, global = 1.10001e-09, cumulative = 1.28829e-07
ExecutionTime = 0.6 s  ClockTime = 0 s

surfaceFieldValue volFlow_inlet write:
    sum(inlet) of phi = -1.67068e-06

surfaceFieldValue volFlow_outlet write:
    sum(outlet) of phi = 1.7291e-06

surfaceFieldValue volFlow_wall write:
    sum(wall) of phi = -5.83505e-08

Time = 0.0045

Courant Number mean: 0.000711608 max: 0.00555227

 Coupling...
Starting up LIGGGHTS
Executing command: 'run 50    '
run 50    
Setting up run at Mon Aug 25 21:10:59 2025

Memory usage per processor = 11.7595 Mbytes
    Step    Atoms         KinEng            rke         Volume       centerOf       explDrag       explDrag       explDrag        cfd2[1]        cfd2[2]        cfd2[3] 
   10400    10000  4.9751674e-08   3.975018e-08      5.076e-05   0.0075822379  1.4935648e-05   5.839525e-05    0.011129957  1.2120905e-06  6.8160243e-05    0.019156722 
0.1041 1.49356481397638e-05 5.83952495904529e-05 0.0111299566510825 -2.64520187615418e-07 6.51242971640822e-05 0.0192123002695716
   10410    10000  4.9233176e-08  3.9267819e-08      5.076e-05    0.007582312  1.4935648e-05   5.839525e-05    0.011129957 -2.6452019e-07  6.5124297e-05      0.0192123 
0.1042 1.49356481397638e-05 5.83952495904529e-05 0.0111299566510825 -2.24054900257247e-06 6.19692973421938e-05 0.0192752008430485
   10420    10000  4.8723338e-08  3.9024863e-08      5.076e-05   0.0075823823  1.4935648e-05   5.839525e-05    0.011129957  -2.240549e-06  6.1969297e-05    0.019275201 
0.1043 1.49356481397638e-05 5.83952495904529e-05 0.0111299566510825 -4.53982060306943e-06 5.88103097359336e-05 0.0193427860239748
   10430    10000  4.8181943e-08  3.8852813e-08      5.076e-05   0.0075824484  1.4935648e-05   5.839525e-05    0.011129957 -4.5398206e-06   5.881031e-05    0.019342786 
0.1044 1.49356481397638e-05 5.83952495904529e-05 0.0111299566510825 -7.13935812029874e-06 5.57094446923926e-05 0.019414746863774
   10440    10000  4.7590661e-08  3.8163375e-08      5.076e-05   0.0075825104  1.4935648e-05   5.839525e-05    0.011129957 -7.1393581e-06  5.5709445e-05    0.019414747 
0.1045 1.49356481397638e-05 5.83952495904529e-05 0.0111299566510825 -9.78150790979862e-06 5.29226824840576e-05 0.0194914543494034
   10450    10000  4.6566536e-08  3.7411374e-08      5.076e-05   0.0075825678  1.4935648e-05   5.839525e-05    0.011129957 -9.7815079e-06  5.2922682e-05    0.019491454 
Loop time of 0.0290551 on 4 procs for 50 steps with 10000 atoms, finish time Mon Aug 25 21:10:59 2025


Pair  time (%) = 0.0219828 (75.6591)
Neigh time (%) = 0 (0)
Comm  time (%) = 0.00225434 (7.75885)
Outpt time (%) = 0.000467879 (1.61032)
Other time (%) = 0.00435006 (14.9717)

Nlocal:    2500 ave 2510 max 2494 min
Histogram: 1 1 0 1 0 0 0 0 0 1
Nghost:    737 ave 741 max 727 min
Histogram: 1 0 0 0 0 0 0 0 0 3
Neighs:    17459.8 ave 17529 max 17418 min
Histogram: 1 1 0 1 0 0 0 0 0 1

Total # of neighbors = 69839
Ave neighs/atom = 6.9839
Neighbor list builds = 0
Dangerous builds = 0
LIGGGHTS finished
get field with name 'radius' at position: 0
get field with name 'x' at position: 1
get field with name 'v' at position: 2

 timeStepFraction() = 1
Zeroizing field with name 'dragforce' at position: 3 with type vector-atom
Zeroizing field with name 'Ksl' at position: 4 with type scalar-atom
Zeroizing field with name 'uf' at position: 5 with type vector-atom
giveData field with name 'dragforce' at position: 3
giveData field with name 'Ksl' at position: 4
giveData field with name 'uf' at position: 5
DILUPBiCG:  Solving for Ux, Initial residual = 0.102163, Final residual = 6.3561e-05, No Iterations 1
DILUPBiCG:  Solving for Uy, Initial residual = 0.0984103, Final residual = 5.99891e-05, No Iterations 1
DILUPBiCG:  Solving for Uz, Initial residual = 0.058341, Final residual = 7.80001e-05, No Iterations 1
DICPCG:  Solving for p, Initial residual = 0.00492407, Final residual = 0.000457991, No Iterations 13
DICPCG:  Solving for p, Initial residual = 0.000483994, Final residual = 3.39184e-05, No Iterations 10
time step continuity errors : sum local = 1.18484e-07, global = -1.46628e-08, cumulative = 1.14167e-07
DICPCG:  Solving for p, Initial residual = 0.0001231, Final residual = 1.11887e-05, No Iterations 23
DICPCG:  Solving for p, Initial residual = 1.4273e-05, Final residual = 1.41865e-06, No Iterations 8
time step continuity errors : sum local = 4.95508e-09, global = -3.70484e-10, cumulative = 1.13796e-07
DICPCG:  Solving for p, Initial residual = 5.06226e-06, Final residual = 8.05815e-07, No Iterations 4
DICPCG:  Solving for p, Initial residual = 9.54193e-07, Final residual = 9.54193e-07, No Iterations 0
time step continuity errors : sum local = 3.33284e-09, global = -1.49988e-10, cumulative = 1.13646e-07
DICPCG:  Solving for p, Initial residual = 1.06194e-06, Final residual = 5.77505e-07, No Iterations 1
DICPCG:  Solving for p, Initial residual = 5.80439e-07, Final residual = 5.80439e-07, No Iterations 0
time step continuity errors : sum local = 2.02738e-09, global = -1.63706e-10, cumulative = 1.13482e-07
ExecutionTime = 0.65 s  ClockTime = 0 s

surfaceFieldValue volFlow_inlet write:
    sum(inlet) of phi = -1.72386e-06

surfaceFieldValue volFlow_outlet write:
    sum(outlet) of phi = 1.75979e-06

surfaceFieldValue volFlow_wall write:
    sum(wall) of phi = -3.59411e-08

Time = 0.005

Courant Number mean: 0.000725069 max: 0.00575638

 Coupling...
Starting up LIGGGHTS
Executing command: 'run 50    '
run 50    
Setting up run at Mon Aug 25 21:10:59 2025

Memory usage per processor = 11.7595 Mbytes
    Step    Atoms         KinEng            rke         Volume       centerOf       explDrag       explDrag       explDrag        cfd2[1]        cfd2[2]        cfd2[3] 
   10450    10000  4.6566536e-08  3.7411374e-08      5.076e-05   0.0075825678  5.2504015e-06  4.2560969e-05     0.01195191 -1.7623581e-05  3.9887185e-05    0.020634311 
0.1046 5.25040145883919e-06 4.25609688326869e-05 0.0119519095188295 -1.99592775206822e-05 3.68759160173549e-05 0.0206923816361515
   10460    10000  4.6212169e-08  3.7023663e-08      5.076e-05   0.0075826211  5.2504015e-06  4.2560969e-05     0.01195191 -1.9959278e-05  3.6875916e-05    0.020692382 
0.1047 5.25040145883919e-06 4.25609688326869e-05 0.0119519095188295 -2.27259409134131e-05 3.29431322276049e-05 0.0207575557162201
   10470    10000  4.5847822e-08  3.6531302e-08      5.076e-05   0.0075826706  5.2504015e-06  4.2560969e-05     0.01195191 -2.2725941e-05  3.2943132e-05    0.020757556 
0.1048 5.25040145883919e-06 4.25609688326869e-05 0.0119519095188295 -2.53658414641536e-05 2.84588575687353e-05 0.0208266737029676
   10480    10000  4.5115395e-08  3.6199231e-08      5.076e-05   0.0075827161  5.2504015e-06  4.2560969e-05     0.01195191 -2.5365841e-05  2.8458858e-05    0.020826674 
0.1049 5.25040145883919e-06 4.25609688326869e-05 0.0119519095188295 -2.79765648173005e-05 2.4159961902815e-05 0.0208988687555548
   10490    10000  4.4567093e-08  3.6099177e-08      5.076e-05   0.0075827575  5.2504015e-06  4.2560969e-05     0.01195191 -2.7976565e-05  2.4159962e-05    0.020898869 
CFD Coupling established at step 10500
0.105 5.25040145883919e-06 4.25609688326869e-05 0.0119519095188295 -3.05467930395636e-05 2.0132815243541e-05 0.0209736131142769
   10500    10000  4.4101248e-08  3.5846272e-08      5.076e-05   0.0075827947  5.2504015e-06  4.2560969e-05     0.01195191 -3.0546793e-05  2.0132815e-05    0.020973613 
Loop time of 0.0302677 on 4 procs for 50 steps with 10000 atoms, finish time Mon Aug 25 21:11:00 2025


Pair  time (%) = 0.0223341 (73.7887)
Neigh time (%) = 0 (0)
Comm  time (%) = 0.00203159 (6.71206)
Outpt time (%) = 0.00046264 (1.5285)
Other time (%) = 0.00543934 (17.9708)

Nlocal:    2500 ave 2510 max 2494 min
Histogram: 1 1 0 1 0 0 0 0 0 1
Nghost:    737.25 ave 741 max 728 min
Histogram: 1 0 0 0 0 0 0 0 0 3
Neighs:    17458.8 ave 17527 max 17420 min
Histogram: 2 0 0 1 0 0 0 0 0 1

Total # of neighbors = 69835
Ave neighs/atom = 6.9835
Neighbor list builds = 0
Dangerous builds = 0
LIGGGHTS finished
get field with name 'radius' at position: 0
get field with name 'x' at position: 1
get field with name 'v' at position: 2

 timeStepFraction() = 1
Zeroizing field with name 'dragforce' at position: 3 with type vector-atom
Zeroizing field with name 'Ksl' at position: 4 with type scalar-atom
Zeroizing field with name 'uf' at position: 5 with type vector-atom
giveData field with name 'dragforce' at position: 3
giveData field with name 'Ksl' at position: 4
giveData field with name 'uf' at position: 5
DILUPBiCG:  Solving for Ux, Initial residual = 0.107925, Final residual = 6.66606e-05, No Iterations 1
DILUPBiCG:  Solving for Uy, Initial residual = 0.0984939, Final residual = 5.30734e-05, No Iterations 1
DILUPBiCG:  Solving for Uz, Initial residual = 0.0521991, Final residual = 5.48228e-05, No Iterations 1
DICPCG:  Solving for p, Initial residual = 0.00381621, Final residual = 0.00036434, No Iterations 13
DICPCG:  Solving for p, Initial residual = 0.000387398, Final residual = 2.34892e-05, No Iterations 19
time step continuity errors : sum local = 8.80576e-08, global = -8.61109e-09, cumulative = 1.04871e-07
DICPCG:  Solving for p, Initial residual = 9.73119e-05, Final residual = 8.15485e-06, No Iterations 10
DICPCG:  Solving for p, Initial residual = 1.16786e-05, Final residual = 9.36855e-07, No Iterations 22
time step continuity errors : sum local = 3.52154e-09, global = 1.3076e-10, cumulative = 1.05002e-07
DICPCG:  Solving for p, Initial residual = 3.81108e-06, Final residual = 8.63342e-07, No Iterations 3
DICPCG:  Solving for p, Initial residual = 9.15106e-07, Final residual = 9.15106e-07, No Iterations 0
time step continuity errors : sum local = 3.43958e-09, global = 1.10704e-09, cumulative = 1.06109e-07
DICPCG:  Solving for p, Initial residual = 9.67323e-07, Final residual = 9.67323e-07, No Iterations 0
DICPCG:  Solving for p, Initial residual = 9.67323e-07, Final residual = 9.67323e-07, No Iterations 0
time step continuity errors : sum local = 3.63585e-09, global = 1.2087e-09, cumulative = 1.07318e-07
ExecutionTime = 0.71 s  ClockTime = 1 s

surfaceFieldValue volFlow_inlet write:
    sum(inlet) of phi = -1.76939e-06

surfaceFieldValue volFlow_outlet write:
    sum(outlet) of phi = 1.79462e-06

surfaceFieldValue volFlow_wall write:
    sum(wall) of phi = -2.51466e-08

Time = 0.0055

Courant Number mean: 0.000740067 max: 0.00597382

 Coupling...
Starting up LIGGGHTS
Executing command: 'run 50    '
run 50    
Setting up run at Mon Aug 25 21:11:00 2025

Memory usage per processor = 11.7595 Mbytes
    Step    Atoms         KinEng            rke         Volume       centerOf       explDrag       explDrag       explDrag        cfd2[1]        cfd2[2]        cfd2[3] 
   10500    10000  4.4101248e-08  3.5846272e-08      5.076e-05   0.0075827947  7.0180966e-06  4.3666601e-05     0.01283292 -2.0105289e-05  3.7904698e-05    0.022174722 
0.1051 7.01809657817506e-06 4.36666006072926e-05 0.0128329199262953 -2.28673754395229e-05 3.37478416991707e-05 0.0222292965872705
   10510    10000  4.2260061e-08  3.5378748e-08      5.076e-05    0.007582828  7.0180966e-06  4.3666601e-05     0.01283292 -2.2867375e-05  3.3747842e-05    0.022229297 
0.1052 7.01809657817506e-06 4.36666006072926e-05 0.0128329199262953 -2.57363732885637e-05 2.93390602985468e-05 0.0222918476161338
   10520    10000   4.081771e-08  3.5183951e-08      5.076e-05    0.007582858  7.0180966e-06  4.3666601e-05     0.01283292 -2.5736373e-05   2.933906e-05    0.022291848 
0.1053 7.01809657817506e-06 4.36666006072926e-05 0.0128329199262953 -2.87538501334402e-05 2.52391434449603e-05 0.0223580286351554
   10530    10000  4.0340312e-08  3.5080783e-08      5.076e-05   0.0075828845  7.0180966e-06  4.3666601e-05     0.01283292  -2.875385e-05  2.5239143e-05    0.022358029 
0.1054 7.01809657817506e-06 4.36666006072926e-05 0.0128329199262953 -3.19998350965369e-05 2.15549534421137e-05 0.0224255697732278
   10540    10000  4.0054105e-08  3.4890259e-08      5.076e-05   0.0075829073  7.0180966e-06  4.3666601e-05     0.01283292 -3.1999835e-05  2.1554953e-05     0.02242557 
0.1055 7.01809657817506e-06 4.36666006072926e-05 0.0128329199262953 -3.47109193364115e-05 1.85809207001518e-05 0.0224945942267016
   10550    10000  3.9643486e-08  3.4611608e-08      5.076e-05   0.0075829264  7.0180966e-06  4.3666601e-05     0.01283292 -3.4710919e-05  1.8580921e-05    0.022494594 
Loop time of 0.0431092 on 4 procs for 50 steps with 10000 atoms, finish time Mon Aug 25 21:11:00 2025


Pair  time (%) = 0.0289112 (67.065)
Neigh time (%) = 0 (0)
Comm  time (%) = 0.00214464 (4.97489)
Outpt time (%) = 0.000596659 (1.38407)
Other time (%) = 0.0114567 (26.576)

Nlocal:    2500 ave 2511 max 2494 min
Histogram: 1 1 1 0 0 0 0 0 0 1
Nghost:    737 ave 741 max 728 min
Histogram: 1 0 0 0 0 0 0 1 0 2
Neighs:    17458.8 ave 17533 max 17421 min
Histogram: 2 0 1 0 0 0 0 0 0 1

Total # of neighbors = 69835
Ave neighs/atom = 6.9835
Neighbor list builds = 0
Dangerous builds = 0
LIGGGHTS finished
get field with name 'radius' at position: 0
get field with name 'x' at position: 1
get field with name 'v' at position: 2

 timeStepFraction() = 1
Zeroizing field with name 'dragforce' at position: 3 with type vector-atom
Zeroizing field with name 'Ksl' at position: 4 with type scalar-atom
Zeroizing field with name 'uf' at position: 5 with type vector-atom
giveData field with name 'dragforce' at position: 3
giveData field with name 'Ksl' at position: 4
giveData field with name 'uf' at position: 5
DILUPBiCG:  Solving for Ux, Initial residual = 0.133993, Final residual = 9.05787e-05, No Iterations 1
DILUPBiCG:  Solving for Uy, Initial residual = 0.111957, Final residual = 7.76535e-05, No Iterations 1
DILUPBiCG:  Solving for Uz, Initial residual = 0.0505015, Final residual = 5.77514e-05, No Iterations 1
DICPCG:  Solving for p, Initial residual = 0.00338893, Final residual = 0.000322602, No Iterations 13
DICPCG:  Solving for p, Initial residual = 0.000354446, Final residual = 2.42701e-05, No Iterations 19
time step continuity errors : sum local = 9.65696e-08, global = -1.23263e-08, cumulative = 9.49915e-08
DICPCG:  Solving for p, Initial residual = 8.49192e-05, Final residual = 6.58652e-06, No Iterations 11
DICPCG:  Solving for p, Initial residual = 9.46058e-06, Final residual = 9.4266e-07, No Iterations 19
time step continuity errors : sum local = 3.75881e-09, global = 2.67934e-10, cumulative = 9.52594e-08
DICPCG:  Solving for p, Initial residual = 3.62454e-06, Final residual = 9.56834e-07, No Iterations 4
DICPCG:  Solving for p, Initial residual = 1.01178e-06, Final residual = 6.21581e-07, No Iterations 1
time step continuity errors : sum local = 2.47844e-09, global = 1.21525e-09, cumulative = 9.64747e-08
DICPCG:  Solving for p, Initial residual = 6.82124e-07, Final residual = 6.82124e-07, No Iterations 0
DICPCG:  Solving for p, Initial residual = 6.82124e-07, Final residual = 6.82124e-07, No Iterations 0
time step continuity errors : sum local = 2.71984e-09, global = 1.31761e-09, cumulative = 9.77923e-08
ExecutionTime = 0.78 s  ClockTime = 1 s

surfaceFieldValue volFlow_inlet write:
    sum(inlet) of phi = -1.80849e-06

surfaceFieldValue volFlow_outlet write:
    sum(outlet) of phi = 1.83303e-06

surfaceFieldValue volFlow_wall write:
    sum(wall) of phi = -2.44609e-08

Time = 0.006

Courant Number mean: 0.000754304 max: 0.00623133

 Coupling...
Starting up LIGGGHTS
Executing command: 'run 50    '
run 50    
Setting up run at Mon Aug 25 21:11:00 2025

Memory usage per processor = 11.7595 Mbytes
    Step    Atoms         KinEng            rke         Volume       centerOf       explDrag       explDrag       explDrag        cfd2[1]        cfd2[2]        cfd2[3] 
   10550    10000  3.9643486e-08  3.4611608e-08      5.076e-05   0.0075829264 -1.1407787e-05  4.5584111e-05    0.013626551 -5.2335829e-05  3.9295265e-05    0.023540077 
0.1056 -1.14077866200164e-05 4.5584110580848e-05 0.013626550848486 -5.35883671044488e-05 3.72371017401648e-05 0.0235904339072927
   10560    10000  3.9456377e-08  3.4315723e-08      5.076e-05   0.0075829421 -1.1407787e-05  4.5584111e-05    0.013626551 -5.3588367e-05  3.7237102e-05    0.023590434 
0.1057 -1.14077866200164e-05 4.5584110580848e-05 0.013626550848486 -5.35822685067965e-05 3.58671018346431e-05 0.0236461678712345
   10570    10000  3.9406125e-08  3.4107031e-08      5.076e-05   0.0075829549 -1.1407787e-05  4.5584111e-05    0.013626551 -5.3582269e-05  3.5867102e-05    0.023646168 
0.1058 -1.14077866200164e-05 4.5584110580848e-05 0.013626550848486 -5.26949675883188e-05 3.45724697401428e-05 0.0237039060737363
   10580    10000  3.9012511e-08  3.3842672e-08      5.076e-05   0.0075829647 -1.1407787e-05  4.5584111e-05    0.013626551 -5.2694968e-05   3.457247e-05    0.023703906 
0.1059 -1.14077866200164e-05 4.5584110580848e-05 0.013626550848486 -5.07136495139084e-05 3.32839058455726e-05 0.0237638412898365
   10590    10000    3.80526e-08  3.3656734e-08      5.076e-05   0.0075829712 -1.1407787e-05  4.5584111e-05    0.013626551  -5.071365e-05  3.3283906e-05    0.023763841 
CFD Coupling established at step 10600
0.106 -1.14077866200164e-05 4.5584110580848e-05 0.013626550848486 -4.81508419088479e-05 3.13075769982037e-05 0.023824206590164
   10600    10000  3.7848429e-08  3.3556748e-08      5.076e-05   0.0075829745 -1.1407787e-05  4.5584111e-05    0.013626551 -4.8150842e-05  3.1307577e-05    0.023824207 
Loop time of 0.0288242 on 4 procs for 50 steps with 10000 atoms, finish time Mon Aug 25 21:11:00 2025


Pair  time (%) = 0.0219434 (76.1282)
Neigh time (%) = 0 (0)
Comm  time (%) = 0.00224418 (7.78574)
Outpt time (%) = 0.000447076 (1.55104)
Other time (%) = 0.0041896 (14.535)

Nlocal:    2500 ave 2511 max 2494 min
Histogram: 1 1 1 0 0 0 0 0 0 1
Nghost:    737 ave 741 max 728 min
Histogram: 1 0 0 0 0 0 0 1 0 2
Neighs:    17456.5 ave 17533 max 17420 min
Histogram: 2 0 1 0 0 0 0 0 0 1

Total # of neighbors = 69826
Ave neighs/atom = 6.9826
Neighbor list builds = 0
Dangerous builds = 0
LIGGGHTS finished
get field with name 'radius' at position: 0
get field with name 'x' at position: 1
get field with name 'v' at position: 2

 timeStepFraction() = 1
Zeroizing field with name 'dragforce' at position: 3 with type vector-atom
Zeroizing field with name 'Ksl' at position: 4 with type scalar-atom
Zeroizing field with name 'uf' at position: 5 with type vector-atom
giveData field with name 'dragforce' at position: 3
giveData field with name 'Ksl' at position: 4
giveData field with name 'uf' at position: 5
DILUPBiCG:  Solving for Ux, Initial residual = 0.132486, Final residual = 8.09524e-05, No Iterations 1
DILUPBiCG:  Solving for Uy, Initial residual = 0.115898, Final residual = 7.33026e-05, No Iterations 1
DILUPBiCG:  Solving for Uz, Initial residual = 0.0462497, Final residual = 5.29337e-05, No Iterations 1
DICPCG:  Solving for p, Initial residual = 0.00331692, Final residual = 0.000267029, No Iterations 13
DICPCG:  Solving for p, Initial residual = 0.000322189, Final residual = 2.94751e-05, No Iterations 9
time step continuity errors : sum local = 1.2275e-07, global = -1.09874e-08, cumulative = 8.68049e-08
DICPCG:  Solving for p, Initial residual = 9.78468e-05, Final residual = 8.93253e-06, No Iterations 20
DICPCG:  Solving for p, Initial residual = 1.34584e-05, Final residual = 1.1502e-06, No Iterations 9
time step continuity errors : sum local = 4.79009e-09, global = -1.25552e-09, cumulative = 8.55494e-08
DICPCG:  Solving for p, Initial residual = 4.77095e-06, Final residual = 9.45827e-07, No Iterations 5
DICPCG:  Solving for p, Initial residual = 1.05658e-06, Final residual = 7.32715e-07, No Iterations 1
time step continuity errors : sum local = 3.05149e-09, global = -2.04777e-09, cumulative = 8.35016e-08
DICPCG:  Solving for p, Initial residual = 8.36843e-07, Final residual = 8.36843e-07, No Iterations 0
DICPCG:  Solving for p, Initial residual = 8.36843e-07, Final residual = 8.36843e-07, No Iterations 0
time step continuity errors : sum local = 3.48514e-09, global = -2.12011e-09, cumulative = 8.13815e-08
ExecutionTime = 0.83 s  ClockTime = 1 s

surfaceFieldValue volFlow_inlet write:
    sum(inlet) of phi = -1.8446e-06

surfaceFieldValue volFlow_outlet write:
    sum(outlet) of phi = 1.85641e-06

surfaceFieldValue volFlow_wall write:
    sum(wall) of phi = -1.1948e-08

Time = 0.0065

Courant Number mean: 0.00076294 max: 0.00643837

 Coupling...
Starting up LIGGGHTS
Executing command: 'run 50    '
run 50    
Setting up run at Mon Aug 25 21:11:00 2025

Memory usage per processor = 11.7595 Mbytes
    Step    Atoms         KinEng            rke         Volume       centerOf       explDrag       explDrag       explDrag        cfd2[1]        cfd2[2]        cfd2[3] 
   10600    10000  3.7848429e-08  3.3556748e-08      5.076e-05   0.0075829745 -4.7574567e-05  5.5626183e-05    0.014361327 -9.5118057e-05  6.5826758e-05    0.024776994 
0.1061 -4.75745671017799e-05 5.56261833342652e-05 0.0143613270938289 -9.25490952670338e-05 6.20831911300115e-05 0.0248174708737858
   10610    10000  3.7307872e-08  3.3195436e-08      5.076e-05   0.0075829751 -4.7574567e-05  5.5626183e-05    0.014361327 -9.2549095e-05  6.2083191e-05    0.024817471 
0.1062 -4.75745671017799e-05 5.56261833342652e-05 0.0143613270938289 -9.11922463510701e-05 5.69444348477786e-05 0.0248611201211493
   10620    10000  3.5417822e-08  3.3012837e-08      5.076e-05   0.0075829734 -4.7574567e-05  5.5626183e-05    0.014361327 -9.1192246e-05  5.6944435e-05     0.02486112 
0.1063 -4.75745671017799e-05 5.56261833342652e-05 0.0143613270938289 -8.97097996598736e-05 5.17109932466818e-05 0.0249061604453695
   10630    10000  3.4741279e-08  3.2901137e-08      5.076e-05   0.0075829694 -4.7574567e-05  5.5626183e-05    0.014361327   -8.97098e-05  5.1710993e-05     0.02490616 
0.1064 -4.75745671017799e-05 5.56261833342652e-05 0.0143613270938289 -8.7617138357243e-05 4.7211876678082e-05 0.0249513742769463
   10640    10000  3.4533765e-08  3.2859142e-08      5.076e-05   0.0075829631 -4.7574567e-05  5.5626183e-05    0.014361327 -8.7617138e-05  4.7211877e-05    0.024951374 
0.1065 -4.75745671017799e-05 5.56261833342652e-05 0.0143613270938289 -8.49547916866649e-05 4.33843851801629e-05 0.0249956899548112
   10650    10000  3.3921295e-08  3.1939325e-08      5.076e-05   0.0075829545 -4.7574567e-05  5.5626183e-05    0.014361327 -8.4954792e-05  4.3384385e-05     0.02499569 
Loop time of 0.0287551 on 4 procs for 50 steps with 10000 atoms, finish time Mon Aug 25 21:11:00 2025


Pair  time (%) = 0.0219803 (76.4398)
Neigh time (%) = 0 (0)
Comm  time (%) = 0.00176812 (6.14892)
Outpt time (%) = 0.000491971 (1.7109)
Other time (%) = 0.00451465 (15.7004)

Nlocal:    2500 ave 2511 max 2494 min
Histogram: 1 1 1 0 0 0 0 0 0 1
Nghost:    737 ave 741 max 728 min
Histogram: 1 0 0 0 0 0 0 1 0 2
Neighs:    17457 ave 17535 max 17423 min
Histogram: 2 0 1 0 0 0 0 0 0 1

Total # of neighbors = 69828
Ave neighs/atom = 6.9828
Neighbor list builds = 0
Dangerous builds = 0
LIGGGHTS finished
get field with name 'radius' at position: 0
get field with name 'x' at position: 1
get field with name 'v' at position: 2

 timeStepFraction() = 1
Zeroizing field with name 'dragforce' at position: 3 with type vector-atom
Zeroizing field with name 'Ksl' at position: 4 with type scalar-atom
Zeroizing field with name 'uf' at position: 5 with type vector-atom
giveData field with name 'dragforce' at position: 3
giveData field with name 'Ksl' at position: 4
giveData field with name 'uf' at position: 5
DILUPBiCG:  Solving for Ux, Initial residual = 0.122752, Final residual = 6.70434e-05, No Iterations 1
DILUPBiCG:  Solving for Uy, Initial residual = 0.122974, Final residual = 7.91131e-05, No Iterations 1
DILUPBiCG:  Solving for Uz, Initial residual = 0.0384722, Final residual = 3.79064e-05, No Iterations 1
DICPCG:  Solving for p, Initial residual = 0.00308961, Final residual = 0.000300047, No Iterations 12
[...]
0.1981 1.24295888871652e-06 0.00105996255422707 0.0463151988607069 4.75747062124897e-05 0.00182136223149996 0.0824077358205298
   19810    10000   5.335565e-07  3.6635679e-08      5.076e-05   0.0077714604  1.2429589e-06   0.0010599626    0.046315199  4.7574706e-05   0.0018213622    0.082407736 
0.1982 1.24295888871652e-06 0.00105996255422707 0.0463151988607069 4.80611137448775e-05 0.0017866534530333 0.0826998309698249
   19820    10000  5.1891474e-07  3.6726052e-08      5.076e-05   0.0077723184  1.2429589e-06   0.0010599626    0.046315199  4.8061114e-05   0.0017866535    0.082699831 
0.1983 1.24295888871652e-06 0.00105996255422707 0.0463151988607069 4.70055747446431e-05 0.0017526337198505 0.0829830331203726
   19830    10000  5.0525327e-07   3.680502e-08      5.076e-05   0.0077731618  1.2429589e-06   0.0010599626    0.046315199  4.7005575e-05   0.0017526337    0.082983033 
0.1984 1.24295888871652e-06 0.00105996255422707 0.0463151988607069 4.40461769385191e-05 0.00171945925721923 0.0832574321517208
   19840    10000  4.9226131e-07  3.6911645e-08      5.076e-05   0.0077739911  1.2429589e-06   0.0010599626    0.046315199  4.4046177e-05   0.0017194593    0.083257432 
0.1985 1.24295888871652e-06 0.00105996255422707 0.0463151988607069 3.94821213072821e-05 0.00168789043569795 0.0835229439078758
   19850    10000  4.7987545e-07  3.7079211e-08      5.076e-05   0.0077748064  1.2429589e-06   0.0010599626    0.046315199  3.9482121e-05   0.0016878904    0.083522944 
Loop time of 0.0255824 on 4 procs for 50 steps with 10000 atoms, finish time Mon Aug 25 21:11:10 2025


Pair  time (%) = 0.0191293 (74.7752)
Neigh time (%) = 0 (0)
Comm  time (%) = 0.00171475 (6.70287)
Outpt time (%) = 0.000445236 (1.7404)
Other time (%) = 0.0042931 (16.7815)

Nlocal:    2500 ave 2510 max 2495 min
Histogram: 2 0 1 0 0 0 0 0 0 1
Nghost:    737.25 ave 746 max 725 min
Histogram: 1 0 0 0 0 1 0 1 0 1
Neighs:    17300.2 ave 17387 max 17249 min
Histogram: 1 1 0 1 0 0 0 0 0 1

Total # of neighbors = 69201
Ave neighs/atom = 6.9201
Neighbor list builds = 0
Dangerous builds = 0
LIGGGHTS finished
get field with name 'radius' at position: 0
get field with name 'x' at position: 1
get field with name 'v' at position: 2

 timeStepFraction() = 1
Zeroizing field with name 'dragforce' at position: 3 with type vector-atom
Zeroizing field with name 'Ksl' at position: 4 with type scalar-atom
Zeroizing field with name 'uf' at position: 5 with type vector-atom
giveData field with name 'dragforce' at position: 3
giveData field with name 'Ksl' at position: 4
giveData field with name 'uf' at position: 5
DILUPBiCG:  Solving for Ux, Initial residual = 0.114933, Final residual = 0.000133695, No Iterations 1
DILUPBiCG:  Solving for Uy, Initial residual = 0.121835, Final residual = 0.000156207, No Iterations 1
DILUPBiCG:  Solving for Uz, Initial residual = 0.0422782, Final residual = 6.93347e-05, No Iterations 1
DICPCG:  Solving for p, Initial residual = 0.0154808, Final residual = 0.00137993, No Iterations 12
DICPCG:  Solving for p, Initial residual = 0.00160501, Final residual = 0.00012637, No Iterations 19
time step continuity errors : sum local = 2.37904e-06, global = -4.84778e-07, cumulative = -5.86568e-06
DICPCG:  Solving for p, Initial residual = 0.000471774, Final residual = 4.51215e-05, No Iterations 11
DICPCG:  Solving for p, Initial residual = 6.65017e-05, Final residual = 6.20656e-06, No Iterations 22
time step continuity errors : sum local = 1.17474e-07, global = -3.36979e-09, cumulative = -5.86905e-06
DICPCG:  Solving for p, Initial residual = 2.95555e-05, Final residual = 2.14009e-06, No Iterations 19
DICPCG:  Solving for p, Initial residual = 3.01587e-06, Final residual = 8.31217e-07, No Iterations 5
time step continuity errors : sum local = 1.57383e-08, global = 4.41064e-10, cumulative = -5.86861e-06
DICPCG:  Solving for p, Initial residual = 2.2308e-06, Final residual = 7.54188e-07, No Iterations 1
DICPCG:  Solving for p, Initial residual = 7.5576e-07, Final residual = 7.5576e-07, No Iterations 0
time step continuity errors : sum local = 1.43096e-08, global = 1.17104e-09, cumulative = -5.86744e-06
ExecutionTime = 10.95 s  ClockTime = 11 s

surfaceFieldValue volFlow_inlet write:
    sum(inlet) of phi = -1.16217e-05

surfaceFieldValue volFlow_outlet write:
    sum(outlet) of phi = 1.17074e-05

surfaceFieldValue volFlow_wall write:
    sum(wall) of phi = -8.56417e-08

Time = 0.099

Courant Number mean: 0.00467728 max: 0.104596

 Coupling...
Starting up LIGGGHTS
Executing command: 'run 50    '
run 50    
Setting up run at Mon Aug 25 21:11:10 2025

Memory usage per processor = 11.7595 Mbytes
    Step    Atoms         KinEng            rke         Volume       centerOf       explDrag       explDrag       explDrag        cfd2[1]        cfd2[2]        cfd2[3] 
   19850    10000  4.7987545e-07  3.7079211e-08      5.076e-05   0.0077748064 -8.1522127e-05     0.00161329     0.05507379 -0.00039796057   0.0023580225    0.098260325 
0.1986 -8.15221268673353e-05 0.00161329002136281 0.0550737903220081 -0.000394305911140392 0.00231949385529172 0.0982343996296874
   19860    10000  4.7889548e-07  3.7139888e-08      5.076e-05   0.0077756152 -8.1522127e-05     0.00161329     0.05507379 -0.00039430591   0.0023194939      0.0982344 
0.1987 -8.15221268673353e-05 0.00161329002136281 0.0550737903220081 -0.000391418221752657 0.00228150471995862 0.0982036093402949
   19870    10000  4.7968326e-07  3.7408822e-08      5.076e-05   0.0077764244 -8.1522127e-05     0.00161329     0.05507379 -0.00039141822   0.0022815047    0.098203609 
0.1988 -8.15221268673353e-05 0.00161329002136281 0.0550737903220081 -0.0003884459105216 0.0022455946175761 0.0981724159578464
   19880    10000  4.8114774e-07  3.7702769e-08      5.076e-05   0.0077772342 -8.1522127e-05     0.00161329     0.05507379 -0.00038844591   0.0022455946    0.098172416 
0.1989 -8.15221268673353e-05 0.00161329002136281 0.0550737903220081 -0.000383775924955868 0.00221091110020972 0.0981421795070148
   19890    10000  4.8271998e-07  3.7999102e-08      5.076e-05   0.0077780445 -8.1522127e-05     0.00161329     0.05507379 -0.00038377592   0.0022109111     0.09814218 
CFD Coupling established at step 19900
0.199 -8.15221268673353e-05 0.00161329002136281 0.0550737903220081 -0.000376363479524714 0.00217657794070018 0.0981136474150681
   19900    10000  4.8406923e-07  3.8260054e-08      5.076e-05   0.0077788554 -8.1522127e-05     0.00161329     0.05507379 -0.00037636348   0.0021765779    0.098113647 
Loop time of 0.0258227 on 4 procs for 50 steps with 10000 atoms, finish time Mon Aug 25 21:11:10 2025


Pair  time (%) = 0.0190593 (73.8083)
Neigh time (%) = 0 (0)
Comm  time (%) = 0.00175415 (6.79308)
Outpt time (%) = 0.000493406 (1.91075)
Other time (%) = 0.00451583 (17.4878)

Nlocal:    2500 ave 2510 max 2495 min
Histogram: 2 0 1 0 0 0 0 0 0 1
Nghost:    737.25 ave 745 max 725 min
Histogram: 1 0 0 0 0 0 1 0 1 1
Neighs:    17296.8 ave 17384 max 17250 min
Histogram: 2 0 0 1 0 0 0 0 0 1

Total # of neighbors = 69187
Ave neighs/atom = 6.9187
Neighbor list builds = 0
Dangerous builds = 0
LIGGGHTS finished
get field with name 'radius' at position: 0
get field with name 'x' at position: 1
get field with name 'v' at position: 2

 timeStepFraction() = 1
Zeroizing field with name 'dragforce' at position: 3 with type vector-atom
Zeroizing field with name 'Ksl' at position: 4 with type scalar-atom
Zeroizing field with name 'uf' at position: 5 with type vector-atom
giveData field with name 'dragforce' at position: 3
giveData field with name 'Ksl' at position: 4
giveData field with name 'uf' at position: 5
DILUPBiCG:  Solving for Ux, Initial residual = 0.125971, Final residual = 8.69403e-05, No Iterations 1
DILUPBiCG:  Solving for Uy, Initial residual = 0.119745, Final residual = 0.000100635, No Iterations 1
DILUPBiCG:  Solving for Uz, Initial residual = 0.0273553, Final residual = 4.03933e-05, No Iterations 1
DICPCG:  Solving for p, Initial residual = 0.012285, Final residual = 0.00103456, No Iterations 5
DICPCG:  Solving for p, Initial residual = 0.00124842, Final residual = 0.000121018, No Iterations 13
time step continuity errors : sum local = 2.32335e-06, global = -1.3995e-06, cumulative = -7.26694e-06
DICPCG:  Solving for p, Initial residual = 0.000444871, Final residual = 3.60332e-05, No Iterations 21
DICPCG:  Solving for p, Initial residual = 5.04531e-05, Final residual = 4.26821e-06, No Iterations 10
time step continuity errors : sum local = 8.34514e-08, global = -1.18861e-08, cumulative = -7.27883e-06
DICPCG:  Solving for p, Initial residual = 2.34567e-05, Final residual = 2.26749e-06, No Iterations 21
DICPCG:  Solving for p, Initial residual = 3.21351e-06, Final residual = 7.96422e-07, No Iterations 3
time step continuity errors : sum local = 1.55688e-08, global = -1.60183e-09, cumulative = -7.28043e-06
DICPCG:  Solving for p, Initial residual = 1.58791e-06, Final residual = 5.49755e-07, No Iterations 1
DICPCG:  Solving for p, Initial residual = 5.5243e-07, Final residual = 5.5243e-07, No Iterations 0
time step continuity errors : sum local = 1.07991e-08, global = -5.08736e-11, cumulative = -7.28048e-06
ExecutionTime = 11 s  ClockTime = 11 s

surfaceFieldValue volFlow_inlet write:
    sum(inlet) of phi = -1.17096e-05

surfaceFieldValue volFlow_outlet write:
    sum(outlet) of phi = 1.18089e-05

surfaceFieldValue volFlow_wall write:
    sum(wall) of phi = -9.92907e-08

Time = 0.0995

Courant Number mean: 0.00465279 max: 0.0257807

 Coupling...
Starting up LIGGGHTS
Executing command: 'run 50    '
run 50    
Setting up run at Mon Aug 25 21:11:10 2025

Memory usage per processor = 11.7595 Mbytes
    Step    Atoms         KinEng            rke         Volume       centerOf       explDrag       explDrag       explDrag        cfd2[1]        cfd2[2]        cfd2[3] 
   19900    10000  4.8406923e-07  3.8260054e-08      5.076e-05   0.0077788554  -0.0002152674  0.00083562257    0.063880842  -0.0004154911   0.0011452379     0.11058005 
0.1991 -0.000215267396437887 0.000835622567645322 0.0638808417456492 -0.000402628953123119 0.00113019692626828 0.110348520844048
   19910    10000  4.9516146e-07   3.833801e-08      5.076e-05   0.0077796726  -0.0002152674  0.00083562257    0.063880842 -0.00040262895   0.0011301969     0.11034852 
0.1992 -0.000215267396437887 0.000835622567645322 0.0638808417456492 -0.00038744411665495 0.00111395357012351 0.110111011445108
   19920    10000  5.0674211e-07  3.8553527e-08      5.076e-05   0.0077805019  -0.0002152674  0.00083562257    0.063880842 -0.00038744412   0.0011139536     0.11011101 
0.1993 -0.000215267396437887 0.000835622567645322 0.0638808417456492 -0.000370565819526637 0.00109815917315593 0.10988179696157
   19930    10000  5.1851734e-07  3.8713395e-08      5.076e-05    0.007781343  -0.0002152674  0.00083562257    0.063880842 -0.00037056582   0.0010981592      0.1098818 
0.1994 -0.000215267396437887 0.000835622567645322 0.0638808417456492 -0.000351580127132416 0.00108390141553 0.109660991299134
   19940    10000  5.3036411e-07  3.8818413e-08      5.076e-05   0.0077821955  -0.0002152674  0.00083562257    0.063880842 -0.00035158013   0.0010839014     0.10966099 
0.1995 -0.000215267396437887 0.000835622567645322 0.0638808417456492 -0.000330739847352001 0.00107273730047617 0.109449458941636
   19950    10000  5.4219306e-07  3.8876657e-08      5.076e-05   0.0077830592  -0.0002152674  0.00083562257    0.063880842 -0.00033073985   0.0010727373     0.10944946 
Loop time of 0.0287464 on 4 procs for 50 steps with 10000 atoms, finish time Mon Aug 25 21:11:10 2025


Pair  time (%) = 0.0194949 (67.8169)
Neigh time (%) = 0 (0)
Comm  time (%) = 0.0024539 (8.53639)
Outpt time (%) = 0.000469086 (1.63181)
Other time (%) = 0.0063285 (22.015)

Nlocal:    2500 ave 2510 max 2495 min
Histogram: 2 0 1 0 0 0 0 0 0 1
Nghost:    737.75 ave 746 max 725 min
Histogram: 1 0 0 0 0 0 1 0 1 1
Neighs:    17294.5 ave 17382 max 17250 min
Histogram: 2 0 0 1 0 0 0 0 0 1

Total # of neighbors = 69178
Ave neighs/atom = 6.9178
Neighbor list builds = 0
Dangerous builds = 0
LIGGGHTS finished
get field with name 'radius' at position: 0
get field with name 'x' at position: 1
get field with name 'v' at position: 2

 timeStepFraction() = 1
Zeroizing field with name 'dragforce' at position: 3 with type vector-atom
Zeroizing field with name 'Ksl' at position: 4 with type scalar-atom
Zeroizing field with name 'uf' at position: 5 with type vector-atom
giveData field with name 'dragforce' at position: 3
giveData field with name 'Ksl' at position: 4
giveData field with name 'uf' at position: 5
DILUPBiCG:  Solving for Ux, Initial residual = 0.109931, Final residual = 9.51585e-05, No Iterations 1
DILUPBiCG:  Solving for Uy, Initial residual = 0.105595, Final residual = 0.000342536, No Iterations 1
DILUPBiCG:  Solving for Uz, Initial residual = 0.0268756, Final residual = 3.80954e-05, No Iterations 1
DICPCG:  Solving for p, Initial residual = 0.00772849, Final residual = 0.000748207, No Iterations 8
DICPCG:  Solving for p, Initial residual = 0.000910558, Final residual = 7.21904e-05, No Iterations 13
time step continuity errors : sum local = 1.37521e-06, global = 7.10315e-07, cumulative = -6.57016e-06
DICPCG:  Solving for p, Initial residual = 0.000246323, Final residual = 2.34803e-05, No Iterations 20
DICPCG:  Solving for p, Initial residual = 3.32157e-05, Final residual = 2.9798e-06, No Iterations 10
time step continuity errors : sum local = 5.61351e-08, global = 1.1433e-08, cumulative = -6.55873e-06
DICPCG:  Solving for p, Initial residual = 1.06496e-05, Final residual = 6.61182e-07, No Iterations 23
DICPCG:  Solving for p, Initial residual = 1.15576e-06, Final residual = 4.47911e-07, No Iterations 1
time step continuity errors : sum local = 8.43813e-09, global = -4.35102e-10, cumulative = -6.55917e-06
DICPCG:  Solving for p, Initial residual = 7.07593e-07, Final residual = 7.07593e-07, No Iterations 0
DICPCG:  Solving for p, Initial residual = 7.07593e-07, Final residual = 7.07593e-07, No Iterations 0
time step continuity errors : sum local = 1.33303e-08, global = -1.79833e-09, cumulative = -6.56096e-06
ExecutionTime = 11.05 s  ClockTime = 11 s

surfaceFieldValue volFlow_inlet write:
    sum(inlet) of phi = -1.18052e-05

surfaceFieldValue volFlow_outlet write:
    sum(outlet) of phi = 1.19298e-05

surfaceFieldValue volFlow_wall write:
    sum(wall) of phi = -1.24706e-07

Time = 0.1

Courant Number mean: 0.00469015 max: 0.0226866

 Coupling...
Starting up LIGGGHTS
Executing command: 'run 50    '
run 50    
Setting up run at Mon Aug 25 21:11:10 2025

Memory usage per processor = 11.7595 Mbytes
    Step    Atoms         KinEng            rke         Volume       centerOf       explDrag       explDrag       explDrag        cfd2[1]        cfd2[2]        cfd2[3] 
   19950    10000  5.4219306e-07  3.8876657e-08      5.076e-05   0.0077830592  9.0493486e-05 -0.00052661418    0.064554604  0.00020119127 -0.00087136183     0.11144246 
0.1996 9.04934864750707e-05 -0.000526614179705191 0.0645546042102165 0.000214041038048842 -0.000848199210106877 0.111230876160089
   19960    10000  5.5496757e-07  3.8737424e-08      5.076e-05   0.0077839345  9.0493486e-05 -0.00052661418    0.064554604  0.00021404104 -0.00084819921     0.11123088 
0.1997 9.04934864750707e-05 -0.000526614179705191 0.0645546042102165 0.000228897598301817 -0.000822519778298104 0.111014323736312
   19970    10000  5.6841366e-07  3.8695135e-08      5.076e-05   0.0077848221  9.0493486e-05 -0.00052661418    0.064554604   0.0002288976 -0.00082251978     0.11101432 
0.1998 9.04934864750707e-05 -0.000526614179705191 0.0645546042102165 0.000244063998507185 -0.00079431940720773 0.110805325202595
   19980    10000  5.8197922e-07  3.8643356e-08      5.076e-05   0.0077857216  9.0493486e-05 -0.00052661418    0.064554604    0.000244064 -0.00079431941     0.11080533 
0.1999 9.04934864750707e-05 -0.000526614179705191 0.0645546042102165 0.000258846044311021 -0.000763369850682971 0.110602800279616
   19990    10000  5.9550823e-07  3.8602351e-08      5.076e-05   0.0077866329  9.0493486e-05 -0.00052661418    0.064554604  0.00025884604 -0.00076336985      0.1106028 
CFD Coupling established at step 20000
0.2 9.04934864750707e-05 -0.000526614179705191 0.0645546042102165 0.000272948418006601 -0.00073019201469094 0.110405632401695
   20000    10000  6.0903565e-07  3.8676669e-08      5.076e-05   0.0077875556  9.0493486e-05 -0.00052661418    0.064554604  0.00027294842 -0.00073019201     0.11040563 
Loop time of 0.0351373 on 4 procs for 50 steps with 10000 atoms, finish time Mon Aug 25 21:11:10 2025


Pair  time (%) = 0.0186357 (53.0367)
Neigh time (%) = 0 (0)
Comm  time (%) = 0.00228406 (6.5004)
Outpt time (%) = 0.00989365 (28.1571)
Other time (%) = 0.00432393 (12.3058)

Nlocal:    2500 ave 2509 max 2495 min
Histogram: 2 0 0 1 0 0 0 0 0 1
Nghost:    737.75 ave 746 max 725 min
Histogram: 1 0 0 0 0 0 1 1 0 1
Neighs:    17289.5 ave 17361 max 17249 min
Histogram: 2 0 0 1 0 0 0 0 0 1

Total # of neighbors = 69158
Ave neighs/atom = 6.9158
Neighbor list builds = 0
Dangerous builds = 0
Executing command: 'write_restart ../DEM/post/restart/liggghts.restartCFDEM'
write_restart ../DEM/post/restart/liggghts.restartCFDEM
System init for write_restart ...
LIGGGHTS finished
get field with name 'radius' at position: 0
get field with name 'x' at position: 1
get field with name 'v' at position: 2

 timeStepFraction() = 1
Zeroizing field with name 'dragforce' at position: 3 with type vector-atom
Zeroizing field with name 'Ksl' at position: 4 with type scalar-atom
Zeroizing field with name 'uf' at position: 5 with type vector-atom
giveData field with name 'dragforce' at position: 3
giveData field with name 'Ksl' at position: 4
giveData field with name 'uf' at position: 5
DILUPBiCG:  Solving for Ux, Initial residual = 0.11122, Final residual = 3.27233e-05, No Iterations 1
DILUPBiCG:  Solving for Uy, Initial residual = 0.110768, Final residual = 5.60203e-05, No Iterations 1
DILUPBiCG:  Solving for Uz, Initial residual = 0.02079, Final residual = 3.47244e-05, No Iterations 1
DICPCG:  Solving for p, Initial residual = 0.00764724, Final residual = 0.00067051, No Iterations 12
DICPCG:  Solving for p, Initial residual = 0.000937409, Final residual = 7.78791e-05, No Iterations 20
time step continuity errors : sum local = 1.36072e-06, global = 1.15661e-07, cumulative = -6.4453e-06
DICPCG:  Solving for p, Initial residual = 0.000214258, Final residual = 1.91574e-05, No Iterations 12
DICPCG:  Solving for p, Initial residual = 2.52277e-05, Final residual = 1.76803e-06, No Iterations 19
time step continuity errors : sum local = 3.06404e-08, global = -4.00517e-09, cumulative = -6.44931e-06
DICPCG:  Solving for p, Initial residual = 9.16477e-06, Final residual = 6.44529e-07, No Iterations 19
DICPCG:  Solving for p, Initial residual = 1.00286e-06, Final residual = 5.04682e-07, No Iterations 1
time step continuity errors : sum local = 8.74871e-09, global = 3.6774e-10, cumulative = -6.44894e-06
DICPCG:  Solving for p, Initial residual = 7.09903e-07, Final residual = 7.09903e-07, No Iterations 0
DICPCG:  Solving for p, Initial residual = 7.09903e-07, Final residual = 7.09903e-07, No Iterations 0
time step continuity errors : sum local = 1.23062e-08, global = 7.2767e-10, cumulative = -6.44821e-06
ExecutionTime = 11.13 s  ClockTime = 11 s

surfaceFieldValue volFlow_inlet write:
    sum(inlet) of phi = -1.18326e-05

surfaceFieldValue volFlow_outlet write:
    sum(outlet) of phi = 1.19234e-05

surfaceFieldValue volFlow_wall write:
    sum(wall) of phi = -9.07493e-08

End

cfdemCloud destroys UserCFDEM data: radius
cfdemCloud destroys UserCFDEM data: x
cfdemCloud destroys UserCFDEM data: v
cfdemCloud destroys UserCFDEM data: dragforce
cfdemCloud destroys UserCFDEM data: Ksl
cfdemCloud destroys UserCFDEM data: uf
Finalising parallel run
