
//   run_parallel_cfdemSolverPiso_ErgunTestMPI_cgs_CFDDEM   //

/home/tigerisking/CFDEM/CFDEMcoupling-PUBLIC-v2506/tutorials/cfdemSolverPiso/ErgunTestMPI_cgs/CFD

/*---------------------------------------------------------------------------*\
| =========                 |                                                 |
| \\      /  F ield         | OpenFOAM: The Open Source CFD Toolbox           |
|  \\    /   O peration     | Version:  2506                                  |
|   \\  /    A nd           | Website:  www.openfoam.com                      |
|    \\/     M anipulation  |                                                 |
\*---------------------------------------------------------------------------*/
Build  : 615aae61d7-20250627 OPENFOAM=2506 version=v2506
Arch   : "LSB;label=32;scalar=64"
Exec   : cfdemSolverPiso -parallel
Date   : Aug 25 2025
Time   : 21:14:11
Host   : ae447-9214
PID    : 36179
I/O    : uncollated
Case   : /home/tigerisking/CFDEM/CFDEMcoupling-PUBLIC-v2506/tutorials/cfdemSolverPiso/ErgunTestMPI_cgs/CFD
nProcs : 4
Hosts  :
(
    (ae447-9214 4)
)
Pstream initialized with:
    node communication : off [type=host] (4 ranks, 1 nodes)
    topology controls  : none
    consensus exchange : 0 (tuning: 0)
    exchange algorithm : 0
    commsType          : nonBlocking
    polling iterations : 0
trapFpe: Floating point exception trapping enabled (FOAM_SIGFPE).
fileModificationChecking : Monitoring run-time modified files using timeStampMaster (fileModificationSkew 5, maxFileModificationPolls 20)
allowSystemOperations : Allowing user-supplied system call operations

// * * * * * * * * * * * * * * * * * * * * * * * * * * * * * * * * * * * * * //
Create time

Overriding DimensionedConstants according to controlDict
    c [0 1 -1 0 0 0 0] 2.99792e+10
    G [-1 3 -2 0 0 0 0] 6.67429e-08
    h [1 2 -1 0 0 0 0] 6.62607e-27
    e [0 0 1 0 0 1 0] 4.8032e-10
    me [1 0 0 0 0 0 0] 9.10938e-28
    mp [1 0 0 0 0 0 0] 1.67262e-24
    mu [1 0 0 0 0 0 0] 1.66054e-24
    NA [0 0 0 0 -1 0 0] 6.02214e+23
    k [1 2 -2 -1 0 0 0] 1.38065e-16
    Pstd [1 -1 -2 0 0 0 0] 1e+06
    Tstd [0 0 0 1 0 0 0] 298.15
    hr [1 2 -1 0 0 0 0] 1.05457e-27
    mu0 [1 1 -2 0 0 -2 0] 1.25664e-06
    epsilon0 [-1 -3 4 0 0 2 0] 8.85421e-16
    Z0 [1 2 -3 0 0 -2 0] 37673
    kappa [1 3 -4 0 0 -2 0] 8.98752e+13
    G0 [-1 -2 3 0 0 2 0] 6.96364e+07
    KJ [-1 -2 2 0 0 1 0] 1.44979e+17
    phi0 [1 2 -2 0 0 -1 0] 6.89755e-18
    RK [1 2 -3 0 0 -2 0] 2.87206e-08
    alpha [0 0 0 0 0 0 0] 6.55852e+11
    Rinf [0 -1 0 0 0 0 0] 8.8641e+32
    a0 [0 1 0 0 0 0 0] 5.88791e-23
    re [0 1 0 0 0 0 0] 25.3264
    Eh [1 2 -2 0 0 0 0] 3.52161e+17
    R [1 2 -2 -1 -1 0 0] 8.31447e+07
    F [0 0 1 0 -1 1 0] 2.89256e+14
    sigma [1 0 -3 -4 0 0 0] 5.67041e-05
    b [0 1 0 1 0 0 0] 0.289777
    c1 [1 4 -3 0 0 0 0] 3.74176e-05
    c2 [0 1 0 1 0 0 0] 1.43877
--> FOAM Warning : 
    From static Foam::IOstreamOption::compressionType Foam::IOstreamOption::compressionEnum(const Foam::word&, Foam::IOstreamOption::compressionType)
    in file db/options/IOstreamOption.C at line 189
    Unknown compression specifier 'uncompressed' using compression off
Create mesh for time = 0


PISO: Operating solver in PISO mode

Reading field p

Reading physical velocity field U
Note: only if voidfraction at boundary is 1, U is superficial velocity!!!


Reading momentum exchange field Ksl


Reading voidfraction field voidfraction = (Vgas/Vparticle)

Reading particle velocity field Us


Creating density field rho

Reading/calculating face flux field phi

Generating interstitial face flux field phiByVoidfraction

Selecting incompressible transport model Newtonian
Selecting turbulence model type laminar
Selecting laminar stress model Stokes
No finite volume options present

Reading g_new
Selecting locateModel engine
Selecting dataExchangeModel twoWayMPI
Starting up LIGGGHTS for first time execution
Executing input script '../DEM/in.liggghts_run'
LIGGGHTS (Version LIGGGHTS-PUBLIC 3.8.0, compiled 2025-08-03-14:45:38 by tigerisking, git commit bbd23c8521fe0a4f3f5bfd0d3dc9a7dddd68d90b)
log             ../DEM/log.liggghts

atom_style      granular
atom_modify     map array
communicate     single vel yes

boundary        m m m
newton          off

units           cgs
processors      2 2 1

# read the restart file
read_restart    ../DEM/post/restart/liggghts.restart
Reading restart file ...
version 3 8
version 3 8
version 3 8
WARNING: Restart file version does not match LIGGGHTS version (../read_restart.cpp:507)
   --> restart file = Version LIGGGHTS-PUBLIC 3.8.0, compiled 2025-08-03-14:40:07 by tigerisking, git commit bbd23c8521fe0a4f3f5bfd0d3dc9a7dddd68d90b
   --> LIGGGHTS = Version LIGGGHTS-PUBLIC 3.8.0, compiled 2025-08-03-14:45:38 by tigerisking, git commit bbd23c8521fe0a4f3f5bfd0d3dc9a7dddd68d90b
version 3 8
WARNING: Restart file used different 3d processor grid (../read_restart.cpp:587)
  orthogonal box = (-1.5 -1.5 -0.1) to (1.5 1.5 5.54)
  2 by 2 by 1 MPI processor grid
  10000 atoms

neighbor        0.1 bin
neigh_modify    delay 0

# Material properties required for granular pair styles
soft_particles yes
fix         m1 all property/global youngsModulus peratomtype 5.e6
fix         m2 all property/global poissonsRatio peratomtype 0.45
fix         m3 all property/global coefficientRestitution peratomtypepair 1 0.3
fix         m4 all property/global coefficientFriction peratomtypepair 1 0.5

# pair style
pair_style  gran model hertz tangential history # Hertzian without cohesion
pair_coeff  * *

# timestep, gravity
timestep    0.00001
fix         gravi all gravity 981 vector 0.0 0.0 -1.0

# walls
fix         zwalls1  all wall/gran model hertz tangential history primitive type 1 zplane 0.0
Resetting global state of Fix history_zwalls1 Style property/atom from restart file info
Resetting per-atom state of Fix history_zwalls1 Style property/atom from restart file info
fix         zwalls2  all wall/gran model hertz tangential history primitive type 1 zplane 5.53
Resetting global state of Fix history_zwalls2 Style property/atom from restart file info
Resetting per-atom state of Fix history_zwalls2 Style property/atom from restart file info
fix         cylwalls all wall/gran model hertz tangential history primitive type 1 zcylinder 1.385 0. 0.
Resetting global state of Fix history_cylwalls Style property/atom from restart file info
Resetting per-atom state of Fix history_cylwalls Style property/atom from restart file info

# change the particles density
set         group all density 2.0
Setting atom values ...
  10000 settings made for density

# cfd coupling
fix         cfd all couple/cfd couple_every 100 mpi
couple_every as specified in LIGGGHTS is overriden by calling external program (../fix_cfd_coupling.cpp:114)
fix         cfd2 all couple/cfd/force/implicit

# apply nve integration to all particles that are inserted as single particles
fix         integr all nve/sphere

# center of mass
compute     centerOfMass all com

# sum of explicit and implicit drag force given from CFD to DEM
variable    dragtotalX equal f_cfd2[1]
variable    dragtotalY equal f_cfd2[2]
variable    dragtotalZ equal f_cfd2[3]

# screen output
compute         rke all erotate/sphere
thermo_style    custom step atoms ke c_rke vol c_centerOfMass[3] v_dragtotalX v_dragtotalY v_dragtotalZ
thermo          10
thermo_modify   lost ignore norm no

dump            dmp all custom 5000 ../DEM/post/dump*.liggghts_run id type x y z vx vy vz fx fy fz f_dragforce[1] f_dragforce[2] f_dragforce[3] radius

run             1
Resetting global state of Fix contacthistory Style contacthistory from restart file info
Resetting per-atom state of Fix contacthistory Style contacthistory from restart file info
Setting up run at Mon Aug 25 21:14:11 2025

Memory usage per processor = 11.7161 Mbytes
    Step    Atoms         KinEng            rke         Volume       centerOf       dragtota       dragtota       dragtota 
   10000    10000      7.5970328      3.7032044          50.76     0.74755392              0              0              0 
   10001    10000      7.5789098      3.6983516          50.76     0.74755407              0              0              0 
Loop time of 0.00108976 on 4 procs for 1 steps with 10000 atoms, finish time Mon Aug 25 21:14:11 2025


Pair  time (%) = 0.000754725 (69.256)
Neigh time (%) = 0 (0)
Comm  time (%) = 7.45585e-05 (6.84173)
Outpt time (%) = 0.000120179 (11.028)
Other time (%) = 0.000140298 (12.8742)

Nlocal:    2500 ave 2513 max 2485 min
Histogram: 1 0 0 0 0 1 1 0 0 1
Nghost:    1003.75 ave 1016 max 998 min
Histogram: 2 0 1 0 0 0 0 0 0 1
Neighs:    47497.8 ave 47805 max 47135 min
Histogram: 1 0 0 0 1 0 0 1 0 1

Total # of neighbors = 189991
Ave neighs/atom = 18.9991
Neighbor list builds = 0
Dangerous builds = 0
Selecting IOModel basicIO
Selecting probeModel off
Selecting voidFractionModel divided
  Variable volScale was not specified, using default 1 for all particle templates.
  Note: for more than 10 particle templates, please specify volScale manually.
Selecting averagingModel dense
Selecting clockModel standardClock
start clock measurement at t >0.002
Selecting smoothingModel off
Selecting meshMotionModel noMeshMotion

CFDEMcoupling version: cfdem-3.8.1
, compatible to LIGGGHTS version: 3.8.0
, compatible to OF version and build: 6-commit-af7d7f427be78e9b9beb6aceca8fe7d5d4636876

You are currently using:
CFDEM build: 3.8.1-dirty

cg is set to: 1
LIGGGHTS hosts 1 atom types.
If BC are important, please provide volScalarFields -imp/expParticleForces-
ignoring ddt(voidfraction)
Selecting momCoupleModel implicitCouple

implicit momentum exchange field calculate if alphaP larger than : 1
Selecting forceModel DiFeliceDrag
 No forceSubModel specified - setting to default forceSubModel ImEx.
 Selecting forceSubModel ImEx
 reading switches:
  looking for treatForceExplicit ...  not found in dict, using default. treatForceExplicit = false
  looking for implForceDEM ...  not found in dict, using default. --> FOAM Warning : 
 You are using the default value for 'implForceDEM' - beware that in CFDEMcoupling versions newer than 3.8.0 this default value has changed from (previously) false to (now) true!
implForceDEM = true
  looking for verbose ...  not found in dict, using default. verbose = false
  looking for interpolation ...  not found in dict, using default. interpolation = false
  looking for scalarViscosity ...  not found in dict, using default. scalarViscosity = false
  looking for voidageFunctionDiFelice ...  not found in dict, using default. voidageFunctionDiFelice = true
  looking for voidageFunctionRong ...  not found in dict, using default. voidageFunctionRong = false
  looking for voidageFunctionTang ...  not found in dict, using default. voidageFunctionTang = false
  looking for particleSpecificCG ...  not found in dict, using default. particleSpecificCG = false

cfdemCloud is registering field 'radius', and type 'scalar-atom' ...
cfdemCloud adds field 'radius' at end of list.
cfdemCloud is registering field 'x', and type 'vector-atom' ...
cfdemCloud adds field 'x' at end of list.
cfdemCloud is registering field 'v', and type 'vector-atom' ...
cfdemCloud adds field 'v' at end of list.
cfdemCloud is registering field 'Ksl', and type 'scalar-atom' ...
cfdemCloud adds field 'Ksl' at end of list.
cfdemCloud is registering field 'uf', and type 'vector-atom' ...
cfdemCloud adds field 'uf' at end of list.
Selecting forceModel gradPForce
 No forceSubModel specified - setting to default forceSubModel ImEx.
 Selecting forceSubModel ImEx
 reading switches:
  looking for treatForceExplicit ...  not found in dict, using default. treatForceExplicit = true
  looking for verbose ...  not found in dict, using default. verbose = false
  looking for interpolation ...  not found in dict, using default. interpolation = false

cfdemCloud is registering field 'radius', and type 'scalar-atom' ...
cfdemCloud already found field 'radius' at position: 0
cfdemCloud is registering field 'x', and type 'vector-atom' ...
cfdemCloud already found field 'x' at position: 1
cfdemCloud is registering field 'v', and type 'vector-atom' ...
cfdemCloud already found field 'v' at position: 2
cfdemCloud is registering field 'dragforce', and type 'vector-atom' ...
cfdemCloud adds field 'dragforce' at end of list.
Selecting forceModel viscForce
 No forceSubModel specified - setting to default forceSubModel ImEx.
 Selecting forceSubModel ImEx
 reading switches:
  looking for treatForceExplicit ...  not found in dict, using default. treatForceExplicit = true
  looking for verbose ...  not found in dict, using default. verbose = false
  looking for interpolation ...  found in dict. interpolation = true
  looking for scalarViscosity ...  not found in dict, using default. scalarViscosity = false

cfdemCloud is registering field 'radius', and type 'scalar-atom' ...
cfdemCloud already found field 'radius' at position: 0
cfdemCloud is registering field 'x', and type 'vector-atom' ...
cfdemCloud already found field 'x' at position: 1
cfdemCloud is registering field 'v', and type 'vector-atom' ...
cfdemCloud already found field 'v' at position: 2
cfdemCloud is registering field 'dragforce', and type 'vector-atom' ...
cfdemCloud already found field 'dragforce' at position: 5
Selecting forceModel Archimedes
 No forceSubModel specified - setting to default forceSubModel ImEx.
 Selecting forceSubModel ImEx
 reading switches:
  looking for verbose ...  not found in dict, using default. verbose = false
  looking for interpolation ...  not found in dict, using default. interpolation = false

cfdemCloud is registering field 'radius', and type 'scalar-atom' ...
cfdemCloud already found field 'radius' at position: 0
cfdemCloud is registering field 'x', and type 'vector-atom' ...
cfdemCloud already found field 'x' at position: 1
cfdemCloud is registering field 'v', and type 'vector-atom' ...
cfdemCloud already found field 'v' at position: 2
cfdemCloud is registering field 'dragforce', and type 'vector-atom' ...
cfdemCloud already found field 'dragforce' at position: 5
Selecting liggghtsCommandModel runLiggghts ,provide dicts, numbered from 0 to n
solving volume averaged Navier Stokes equations of type A

Starting time loop

--> FOAM Warning : 
    From void Foam::timeControl::read(const Foam::dictionary&)
    in file db/functionObjects/timeControl/timeControl.C at line 131
    Reading "system/controlDict/functions/probes" at line 156 to 191
    Found deprecated 'outputControl'
    Use 'writeControl' with 'writeInterval'
    This keyword is 108 months old.

    This keyword is 108 months old.

    This keyword is 108 months old.

    This keyword is 108 months old.

--> FOAM IOWarning :
    Found [v1612] 'functionObjectLibs' entry instead of 'libs' in dictionary "system/controlDict/functions/probes"

    This keyword is 102 months old.

--> FOAM Warning : 
    From virtual void Foam::probes::findElements(const Foam::fvMesh&)
    in file probes/probes.C at line 260
    Location (0 0 0.51) seems to be on multiple domains: cell 134 on my domain 0 and face 136 on some other domain.
This might happen if the probe location is on a processor patch. Change the location slightly to prevent this.
--> FOAM Warning : 
    From virtual void Foam::probes::findElements(const Foam::fvMesh&)
    in file probes/probes.C at line 260
    Location (0 0 1.01) seems to be on multiple domains: cell 230 on my domain 0 and face 232 on some other domain.
This might happen if the probe location is on a processor patch. Change the location slightly to prevent this.
--> FOAM Warning : 
    From virtual void Foam::probes::findElements(const Foam::fvMesh&)
    in file probes/probes.C at line 260
    Location (0 0 1.26) seems to be on multiple domains: cell 3431 on my domain 0 and face 3620 on some other domain.
This might happen if the probe location is on a processor patch. Change the location slightly to prevent this.
--> FOAM Warning : 
    From virtual void Foam::probes::findElements(const Foam::fvMesh&)
    in file probes/probes.C at line 260
    Location (0 0 1.51) seems to be on multiple domains: cell 3435 on my domain 0 and face 3624 on some other domain.
This might happen if the probe location is on a processor patch. Change the location slightly to prevent this.
--> FOAM Warning : 
    From virtual void Foam::probes::findElements(const Foam::fvMesh&)
    in file probes/probes.C at line 260
    Location (0 0 2.01) seems to be on multiple domains: cell 422 on my domain 0 and face 424 on some other domain.
This might happen if the probe location is on a processor patch. Change the location slightly to prevent this.
--> FOAM Warning : 
    From virtual void Foam::probes::findElements(const Foam::fvMesh&)
    in file probes/probes.C at line 260
    Location (0 0 3.51) seems to be on multiple domains: cell 3471 on my domain 0 and face 3660 on some other domain.
This might happen if the probe location is on a processor patch. Change the location slightly to prevent this.
--> FOAM Warning : 
    From virtual void Foam::probes::findElements(const Foam::fvMesh&)
    in file probes/probes.C at line 260
    Location (0 0 4.01) seems to be on multiple domains: cell 854 on my domain 0 and face 856 on some other domain.
This might happen if the probe location is on a processor patch. Change the location slightly to prevent this.
--> FOAM Warning : 
    From virtual void Foam::probes::findElements(const Foam::fvMesh&)
    in file probes/probes.C at line 260
    Location (0 0 4.26) seems to be on multiple domains: cell 3483 on my domain 0 and face 3672 on some other domain.
This might happen if the probe location is on a processor patch. Change the location slightly to prevent this.
Time = 0.001

Courant Number mean: 1.80832e-05 max: 0.000433996

 Coupling...
Starting up LIGGGHTS
Executing command: 'run 100    '
run 100    
Setting up run at Mon Aug 25 21:14:11 2025

Memory usage per processor = 11.7164 Mbytes
    Step    Atoms         KinEng            rke         Volume       centerOf       dragtota       dragtota       dragtota 
   10001    10000      7.5789098      3.6983516          50.76     0.74755407              0              0              0 
   10010    10000      7.5060126      3.6830814          50.76     0.74755557              0              0              0 
   10020    10000      7.4380904      3.6746384          50.76     0.74755755              0              0              0 
   10030    10000      7.3936916      3.6696547          50.76     0.74755983              0              0              0 
   10040    10000      7.3648712      3.6663008          50.76     0.74756243              0              0              0 
   10050    10000      7.3370336      3.6508845          50.76     0.74756531              0              0              0 
   10060    10000      7.2911684      3.6166741          50.76     0.74756847              0              0              0 
   10070    10000      7.1182903      3.5752437          50.76     0.74757191              0              0              0 
   10080    10000      6.9745618      3.5590654          50.76     0.74757561              0              0              0 
   10090    10000       6.909019      3.5308905          50.76     0.74757955              0              0              0 
CFD Coupling established at step 10100
   10100    10000      6.8673371      3.5232592          50.76     0.74758372              0              0              0 
   10101    10000      6.8622075      3.5198083          50.76     0.74758415              0              0              0 
Loop time of 0.078769 on 4 procs for 100 steps with 10000 atoms, finish time Mon Aug 25 21:14:11 2025


Pair  time (%) = 0.0635051 (80.6219)
Neigh time (%) = 0 (0)
Comm  time (%) = 0.00469423 (5.95949)
Outpt time (%) = 0.000702823 (0.892258)
Other time (%) = 0.00986685 (12.5263)

Nlocal:    2500 ave 2513 max 2485 min
Histogram: 1 0 0 0 0 1 1 0 0 1
Nghost:    1003.75 ave 1016 max 998 min
Histogram: 2 0 1 0 0 0 0 0 0 1
Neighs:    47498.2 ave 47805 max 47134 min
Histogram: 1 0 0 0 1 0 0 1 0 1

Total # of neighbors = 189993
Ave neighs/atom = 18.9993
Neighbor list builds = 0
Dangerous builds = 0
LIGGGHTS finished
get field with name 'radius' at position: 0
get field with name 'x' at position: 1
get field with name 'v' at position: 2

 timeStepFraction() = 1
Zeroizing field with name 'Ksl' at position: 3 with type scalar-atom
Zeroizing field with name 'uf' at position: 4 with type vector-atom
Zeroizing field with name 'dragforce' at position: 5 with type vector-atom
giveData field with name 'Ksl' at position: 3
giveData field with name 'uf' at position: 4
giveData field with name 'dragforce' at position: 5
DILUPBiCG:  Solving for Ux, Initial residual = 1, Final residual = 2.25008e-07, No Iterations 3
DILUPBiCG:  Solving for Uy, Initial residual = 1, Final residual = 1.93439e-07, No Iterations 3
DILUPBiCG:  Solving for Uz, Initial residual = 1, Final residual = 2.99245e-07, No Iterations 3
DICPCG:  Solving for p, Initial residual = 1, Final residual = 0.073136, No Iterations 23
DICPCG:  Solving for p, Initial residual = 0.00369234, Final residual = 0.000310495, No Iterations 6
time step continuity errors : sum local = 3.27747e-06, global = -5.43482e-07, cumulative = -5.43482e-07
DICPCG:  Solving for p, Initial residual = 0.00355523, Final residual = 0.000253219, No Iterations 23
DICPCG:  Solving for p, Initial residual = 0.000410758, Final residual = 3.77427e-05, No Iterations 6
time step continuity errors : sum local = 3.77033e-07, global = 2.66068e-09, cumulative = -5.40821e-07
DICPCG:  Solving for p, Initial residual = 0.00022321, Final residual = 2.19138e-05, No Iterations 10
DICPCG:  Solving for p, Initial residual = 3.015e-05, Final residual = 2.52034e-06, No Iterations 21
time step continuity errors : sum local = 2.51743e-08, global = 7.43492e-11, cumulative = -5.40747e-07
DICPCG:  Solving for p, Initial residual = 2.03789e-05, Final residual = 1.99271e-06, No Iterations 4
DICPCG:  Solving for p, Initial residual = 2.69165e-06, Final residual = 9.91094e-07, No Iterations 13
time step continuity errors : sum local = 9.89625e-09, global = 7.12554e-10, cumulative = -5.40034e-07
ExecutionTime = 0.18 s  ClockTime = 0 s

Time = 0.002

Courant Number mean: 0.00161085 max: 0.0371312

 Coupling...
Starting up LIGGGHTS
Executing command: 'run 100    '
run 100    
Setting up run at Mon Aug 25 21:14:11 2025

Memory usage per processor = 11.7164 Mbytes
    Step    Atoms         KinEng            rke         Volume       centerOf       dragtota       dragtota       dragtota 
   10101    10000      6.8622075      3.5198083          50.76     0.74758415     -7.0080302      24.281342     -112.44225 
   10110    10000      6.7388836      3.4566952          50.76     0.74758806     -7.1941449      23.674966     -111.51315 
   10120    10000      6.6311855      3.4105316          50.76     0.74759247     -7.4527572       22.75663     -110.13079 
   10130    10000      6.4826398      3.3515563          50.76     0.74759694     -7.7863546      21.732512         -108.6 
   10140    10000      6.3700182      3.2922395          50.76     0.74760144     -8.1465442      20.735959     -107.15678 
   10150    10000      6.2283807        3.24485          50.76     0.74760595     -8.4618028      19.956132     -105.60919 
   10160    10000      6.1280441       3.211873          50.76     0.74761047     -8.9826669      19.556457     -103.81697 
   10170    10000      6.0629076      3.1844194          50.76     0.74761498     -9.5238955      19.342249     -101.71762 
   10180    10000        5.99028      3.1431804          50.76     0.74761945     -10.022748      19.039468     -99.561743 
   10190    10000      5.9303679       3.099231          50.76     0.74762386     -10.571173      18.559982     -97.428682 
CFD Coupling established at step 10200
   10200    10000      5.8912989      3.0588339          50.76     0.74762819     -11.146348      17.922876     -95.163585 
   10201    10000      5.8880188      3.0541969          50.76     0.74762862     -11.203712      17.850211     -94.924708 
Loop time of 0.0797333 on 4 procs for 100 steps with 10000 atoms, finish time Mon Aug 25 21:14:11 2025


Pair  time (%) = 0.0638651 (80.0984)
Neigh time (%) = 0 (0)
Comm  time (%) = 0.00499072 (6.25927)
Outpt time (%) = 0.000749508 (0.940018)
Other time (%) = 0.0101279 (12.7023)

Nlocal:    2500 ave 2513 max 2484 min
Histogram: 1 0 0 0 0 1 1 0 0 1
Nghost:    1003.5 ave 1016 max 997 min
Histogram: 1 1 1 0 0 0 0 0 0 1
Neighs:    47515 ave 47812 max 47134 min
Histogram: 1 0 0 0 1 0 0 1 0 1

Total # of neighbors = 190060
Ave neighs/atom = 19.006
Neighbor list builds = 0
Dangerous builds = 0
LIGGGHTS finished
get field with name 'radius' at position: 0
get field with name 'x' at position: 1
get field with name 'v' at position: 2

 timeStepFraction() = 1
Zeroizing field with name 'Ksl' at position: 3 with type scalar-atom
Zeroizing field with name 'uf' at position: 4 with type vector-atom
Zeroizing field with name 'dragforce' at position: 5 with type vector-atom
giveData field with name 'Ksl' at position: 3
giveData field with name 'uf' at position: 4
giveData field with name 'dragforce' at position: 5
DILUPBiCG:  Solving for Ux, Initial residual = 0.284969, Final residual = 5.7535e-07, No Iterations 3
DILUPBiCG:  Solving for Uy, Initial residual = 0.252318, Final residual = 6.4511e-07, No Iterations 3
DILUPBiCG:  Solving for Uz, Initial residual = 0.275975, Final residual = 1.94982e-06, No Iterations 3
DICPCG:  Solving for p, Initial residual = 0.026255, Final residual = 0.00214138, No Iterations 20
DICPCG:  Solving for p, Initial residual = 0.00411985, Final residual = 0.00034868, No Iterations 7
time step continuity errors : sum local = 2.43693e-06, global = 6.90303e-07, cumulative = 1.50269e-07
DICPCG:  Solving for p, Initial residual = 0.00429567, Final residual = 0.000306265, No Iterations 23
DICPCG:  Solving for p, Initial residual = 0.000452707, Final residual = 3.35796e-05, No Iterations 8
time step continuity errors : sum local = 2.51908e-07, global = -3.76075e-09, cumulative = 1.46508e-07
DICPCG:  Solving for p, Initial residual = 0.000187406, Final residual = 1.73444e-05, No Iterations 16
DICPCG:  Solving for p, Initial residual = 2.55205e-05, Final residual = 2.06128e-06, No Iterations 9
time step continuity errors : sum local = 1.54582e-08, global = -1.28307e-09, cumulative = 1.45225e-07
DICPCG:  Solving for p, Initial residual = 1.67008e-05, Final residual = 1.29293e-06, No Iterations 19
DICPCG:  Solving for p, Initial residual = 2.02208e-06, Final residual = 7.74155e-07, No Iterations 1
time step continuity errors : sum local = 5.80623e-09, global = -1.45321e-10, cumulative = 1.4508e-07
ExecutionTime = 0.28 s  ClockTime = 0 s

Time = 0.003

Courant Number mean: 0.00160892 max: 0.0512744

 Coupling...
Starting up LIGGGHTS
Executing command: 'run 100    '
run 100    
Setting up run at Mon Aug 25 21:14:11 2025

Memory usage per processor = 11.7164 Mbytes
    Step    Atoms         KinEng            rke         Volume       centerOf       dragtota       dragtota       dragtota 
   10201    10000      5.8880188      3.0541969          50.76     0.74762862     -37.100726      18.573355      1397.6656 
   10210    10000      5.8537509      3.0042083          50.76       0.747633     -37.197054      17.886428       1379.074 
   10220    10000      5.8195745      2.9699058          50.76     0.74763904     -37.271421      16.950495      1358.7201 
   10230    10000      5.7836417      2.9349646          50.76     0.74764625     -37.263764      15.843722      1339.8651 
   10240    10000      5.7416328      2.9060445          50.76     0.74765455     -37.107546      14.689546      1322.5109 
   10250    10000      5.7034467      2.8851608          50.76     0.74766385     -37.013862      13.522548      1306.5996 
   10260    10000        5.69031        2.86994          50.76     0.74767408     -37.086549      12.333109      1292.0617 
   10270    10000      5.5900253       2.854023          50.76     0.74768517     -37.183566      11.149135       1278.905 
   10280    10000      5.3085747       2.856873          50.76     0.74769706     -37.102817      9.9572885      1267.1284 
   10290    10000      5.1718845      2.8836563          50.76     0.74770969     -37.021215       8.902599      1256.6307 
CFD Coupling established at step 10300
   10300    10000      5.0781563       2.876641          50.76     0.74772298     -37.048676      7.9670265      1247.3763 
   10301    10000      5.0714247      2.8723216          50.76     0.74772434     -37.054965       7.880387      1246.5184 
Loop time of 0.0834781 on 4 procs for 100 steps with 10000 atoms, finish time Mon Aug 25 21:14:11 2025


Pair  time (%) = 0.0647115 (77.5191)
Neigh time (%) = 0 (0)
Comm  time (%) = 0.0053253 (6.37928)
Outpt time (%) = 0.000967332 (1.15879)
Other time (%) = 0.012474 (14.9428)

Nlocal:    2500 ave 2514 max 2484 min
Histogram: 1 0 0 0 0 1 1 0 0 1
Nghost:    1002.75 ave 1015 max 998 min
Histogram: 2 1 0 0 0 0 0 0 0 1
Neighs:    47538.2 ave 47842 max 47162 min
Histogram: 1 0 0 0 1 0 0 1 0 1

Total # of neighbors = 190153
Ave neighs/atom = 19.0153
Neighbor list builds = 0
Dangerous builds = 0
LIGGGHTS finished
get field with name 'radius' at position: 0
get field with name 'x' at position: 1
get field with name 'v' at position: 2

 timeStepFraction() = 1
Zeroizing field with name 'Ksl' at position: 3 with type scalar-atom
Zeroizing field with name 'uf' at position: 4 with type vector-atom
Zeroizing field with name 'dragforce' at position: 5 with type vector-atom
giveData field with name 'Ksl' at position: 3
giveData field with name 'uf' at position: 4
giveData field with name 'dragforce' at position: 5
DILUPBiCG:  Solving for Ux, Initial residual = 0.230322, Final residual = 9.61997e-06, No Iterations 2
DILUPBiCG:  Solving for Uy, Initial residual = 0.220268, Final residual = 7.59394e-06, No Iterations 2
DILUPBiCG:  Solving for Uz, Initial residual = 0.265269, Final residual = 4.79826e-07, No Iterations 3
DICPCG:  Solving for p, Initial residual = 0.0286731, Final residual = 0.00284116, No Iterations 18
DICPCG:  Solving for p, Initial residual = 0.00366176, Final residual = 0.000324633, No Iterations 7
time step continuity errors : sum local = 2.51817e-06, global = -3.17107e-07, cumulative = -1.72027e-07
DICPCG:  Solving for p, Initial residual = 0.00191151, Final residual = 0.000181858, No Iterations 21
DICPCG:  Solving for p, Initial residual = 0.000284226, Final residual = 2.5881e-05, No Iterations 8
time step continuity errors : sum local = 1.9785e-07, global = 3.61253e-08, cumulative = -1.35902e-07
DICPCG:  Solving for p, Initial residual = 0.000150554, Final residual = 9.3578e-06, No Iterations 19
DICPCG:  Solving for p, Initial residual = 1.77513e-05, Final residual = 1.40264e-06, No Iterations 7
time step continuity errors : sum local = 1.07183e-08, global = 1.63106e-09, cumulative = -1.34271e-07
DICPCG:  Solving for p, Initial residual = 1.34885e-05, Final residual = 1.33082e-06, No Iterations 6
DICPCG:  Solving for p, Initial residual = 1.93405e-06, Final residual = 9.06383e-07, No Iterations 1
time step continuity errors : sum local = 6.92603e-09, global = 1.29115e-09, cumulative = -1.32979e-07
ExecutionTime = 0.39 s  ClockTime = 0 s

Time = 0.004

Courant Number mean: 0.00187227 max: 0.0305714

 Coupling...
Starting up LIGGGHTS
Executing command: 'run 100    '
run 100    
Setting up run at Mon Aug 25 21:14:11 2025

Memory usage per processor = 11.7164 Mbytes
    Step    Atoms         KinEng            rke         Volume       centerOf       dragtota       dragtota       dragtota 
   10301    10000      5.0714247      2.8723216          50.76     0.74772434     -33.842256      2.7489713      1182.1457 
   10310    10000      4.9480043      2.7989015          50.76      0.7477368     -33.876474      2.1571226       1176.439 
   10320    10000      4.7781496      2.7395932          50.76     0.74775103     -33.925624      1.4710636      1170.7288 
   10330    10000      4.6640454      2.7064665          50.76     0.74776562     -34.007676     0.81532132      1166.1336 
   10340    10000      4.4601267      2.7103287          50.76     0.74778051     -34.131219     0.18856257      1162.5404 
   10350    10000      4.3817022      2.6820685          50.76     0.74779563     -34.234906    -0.40909059       1159.891 
   10360    10000      4.3009838      2.6169863          50.76     0.74781096      -34.47779     -1.1972606      1158.0323 
   10370    10000      4.2418884      2.5895105          50.76     0.74782645     -34.786256      -1.995836      1157.1331 
   10380    10000      4.2051308      2.5746527          50.76     0.74784203     -35.058445     -2.6438259      1157.1985 
   10390    10000      4.1706844      2.5564282          50.76     0.74785766     -35.319552     -3.1940519      1157.9849 
CFD Coupling established at step 10400
   10400    10000      4.1469907      2.5452423          50.76     0.74787328     -35.540954     -3.7214157      1159.2176 
   10401    10000      4.1448775       2.544295          50.76     0.74787484     -35.558694     -3.7745321      1159.3756 
Loop time of 0.0797413 on 4 procs for 100 steps with 10000 atoms, finish time Mon Aug 25 21:14:11 2025


Pair  time (%) = 0.0639792 (80.2336)
Neigh time (%) = 0 (0)
Comm  time (%) = 0.00492373 (6.17463)
Outpt time (%) = 0.000712599 (0.89364)
Other time (%) = 0.0101257 (12.6982)

Nlocal:    2500 ave 2514 max 2483 min
Histogram: 1 0 0 0 0 1 1 0 0 1
Nghost:    1002.5 ave 1013 max 998 min
Histogram: 2 0 1 0 0 0 0 0 0 1
Neighs:    47544.8 ave 47842 max 47145 min
Histogram: 1 0 0 0 0 1 0 1 0 1

Total # of neighbors = 190179
Ave neighs/atom = 19.0179
Neighbor list builds = 0
Dangerous builds = 0
LIGGGHTS finished
get field with name 'radius' at position: 0
get field with name 'x' at position: 1
get field with name 'v' at position: 2

 timeStepFraction() = 1
Zeroizing field with name 'Ksl' at position: 3 with type scalar-atom
Zeroizing field with name 'uf' at position: 4 with type vector-atom
Zeroizing field with name 'dragforce' at position: 5 with type vector-atom
giveData field with name 'Ksl' at position: 3
giveData field with name 'uf' at position: 4
giveData field with name 'dragforce' at position: 5
DILUPBiCG:  Solving for Ux, Initial residual = 0.242668, Final residual = 5.78014e-07, No Iterations 3
DILUPBiCG:  Solving for Uy, Initial residual = 0.224523, Final residual = 5.45763e-07, No Iterations 3
DILUPBiCG:  Solving for Uz, Initial residual = 0.152995, Final residual = 1.03457e-06, No Iterations 3
DICPCG:  Solving for p, Initial residual = 0.0237972, Final residual = 0.00234867, No Iterations 21
DICPCG:  Solving for p, Initial residual = 0.00395462, Final residual = 0.000342396, No Iterations 9
time step continuity errors : sum local = 1.99287e-06, global = 5.24073e-07, cumulative = 3.91093e-07
DICPCG:  Solving for p, Initial residual = 0.00238282, Final residual = 0.000225468, No Iterations 23
DICPCG:  Solving for p, Initial residual = 0.000379171, Final residual = 3.6325e-05, No Iterations 5
time step continuity errors : sum local = 2.16816e-07, global = -4.95672e-09, cumulative = 3.86137e-07
DICPCG:  Solving for p, Initial residual = 0.000157882, Final residual = 9.92737e-06, No Iterations 20
DICPCG:  Solving for p, Initial residual = 2.07401e-05, Final residual = 2.04203e-06, No Iterations 7
time step continuity errors : sum local = 1.21902e-08, global = -1.27045e-10, cumulative = 3.8601e-07
DICPCG:  Solving for p, Initial residual = 1.43588e-05, Final residual = 1.27155e-06, No Iterations 19
DICPCG:  Solving for p, Initial residual = 2.16788e-06, Final residual = 9.92492e-07, No Iterations 1
time step continuity errors : sum local = 5.92505e-09, global = -6.2789e-10, cumulative = 3.85382e-07
ExecutionTime = 0.49 s  ClockTime = 0 s

Time = 0.005

Courant Number mean: 0.00175154 max: 0.0378863

 Coupling...
Starting up LIGGGHTS
Executing command: 'run 100    '
run 100    
Setting up run at Mon Aug 25 21:14:11 2025

Memory usage per processor = 11.7164 Mbytes
    Step    Atoms         KinEng            rke         Volume       centerOf       dragtota       dragtota       dragtota 
   10401    10000      4.1448775       2.544295          50.76     0.74787484     -35.499948     -19.791414       1243.994 
   10410    10000      4.1229366      2.5336731          50.76     0.74788889     -35.689605     -20.039561      1244.3143 
   10420    10000      4.0789857       2.517703          50.76     0.74790451     -35.905551     -20.446773      1245.6142 
   10430    10000      4.0416736      2.5054375          50.76      0.7479201     -36.214862     -20.929639      1247.7982 
   10440    10000       3.992877      2.4951016          50.76     0.74793561     -36.515696     -21.203839      1250.2915 
   10450    10000      3.9173008      2.4787242          50.76     0.74795102     -36.646676     -21.330938      1252.9321 
   10460    10000      3.8190696      2.4385914          50.76      0.7479663     -36.642272     -21.369439      1256.0226 
   10470    10000      3.6220001      2.3934797          50.76     0.74798142     -36.603082     -21.328498      1259.6976 
   10480    10000      3.5124899      2.3726801          50.76     0.74799635      -36.73604     -21.205151      1264.2917 
   10490    10000      3.4476231      2.3465628          50.76     0.74801106     -36.825618     -21.062343      1269.3655 
CFD Coupling established at step 10500
   10500    10000      3.4078769      2.3215329          50.76     0.74802554      -36.75345     -20.916893      1274.6417 
   10501    10000      3.4044089      2.3194538          50.76     0.74802697     -36.746263     -20.895928      1275.1777 
Loop time of 0.0789755 on 4 procs for 100 steps with 10000 atoms, finish time Mon Aug 25 21:14:11 2025


Pair  time (%) = 0.0640271 (81.0721)
Neigh time (%) = 0 (0)
Comm  time (%) = 0.00470528 (5.9579)
Outpt time (%) = 0.000762401 (0.965363)
Other time (%) = 0.00948072 (12.0046)

Nlocal:    2500 ave 2514 max 2484 min
Histogram: 1 0 0 0 0 1 1 0 0 1
Nghost:    1002.75 ave 1014 max 998 min
Histogram: 2 1 0 0 0 0 0 0 0 1
Neighs:    47554.2 ave 47862 max 47163 min
Histogram: 1 0 0 0 0 1 0 1 0 1

Total # of neighbors = 190217
Ave neighs/atom = 19.0217
Neighbor list builds = 0
Dangerous builds = 0
LIGGGHTS finished
get field with name 'radius' at position: 0
get field with name 'x' at position: 1
get field with name 'v' at position: 2

 timeStepFraction() = 1
Zeroizing field with name 'Ksl' at position: 3 with type scalar-atom
Zeroizing field with name 'uf' at position: 4 with type vector-atom
Zeroizing field with name 'dragforce' at position: 5 with type vector-atom
giveData field with name 'Ksl' at position: 3
giveData field with name 'uf' at position: 4
giveData field with name 'dragforce' at position: 5
DILUPBiCG:  Solving for Ux, Initial residual = 0.216217, Final residual = 8.09471e-06, No Iterations 2
DILUPBiCG:  Solving for Uy, Initial residual = 0.220416, Final residual = 8.66332e-06, No Iterations 2
DILUPBiCG:  Solving for Uz, Initial residual = 0.161837, Final residual = 5.63895e-07, No Iterations 3
DICPCG:  Solving for p, Initial residual = 0.0311584, Final residual = 0.00270924, No Iterations 3
DICPCG:  Solving for p, Initial residual = 0.00310715, Final residual = 0.000272933, No Iterations 11
time step continuity errors : sum local = 1.60472e-06, global = -5.23265e-07, cumulative = -1.37884e-07
DICPCG:  Solving for p, Initial residual = 0.00197541, Final residual = 0.000158459, No Iterations 7
DICPCG:  Solving for p, Initial residual = 0.000234379, Final residual = 2.09897e-05, No Iterations 17
time step continuity errors : sum local = 1.21621e-07, global = 1.3246e-08, cumulative = -1.24638e-07
DICPCG:  Solving for p, Initial residual = 0.000127268, Final residual = 1.00506e-05, No Iterations 18
DICPCG:  Solving for p, Initial residual = 1.46956e-05, Final residual = 1.39264e-06, No Iterations 8
time step continuity errors : sum local = 8.08187e-09, global = 6.1345e-11, cumulative = -1.24576e-07
DICPCG:  Solving for p, Initial residual = 1.03809e-05, Final residual = 9.53686e-07, No Iterations 8
DICPCG:  Solving for p, Initial residual = 1.29993e-06, Final residual = 6.61386e-07, No Iterations 1
time step continuity errors : sum local = 3.83811e-09, global = 1.77618e-09, cumulative = -1.228e-07
ExecutionTime = 0.59 s  ClockTime = 0 s

Time = 0.006

Courant Number mean: 0.00160292 max: 0.0205471

 Coupling...
Starting up LIGGGHTS
Executing command: 'run 100    '
run 100    
Setting up run at Mon Aug 25 21:14:11 2025

Memory usage per processor = 11.7164 Mbytes
    Step    Atoms         KinEng            rke         Volume       centerOf       dragtota       dragtota       dragtota 
   10501    10000      3.4044089      2.3194538          50.76     0.74802697     -26.134024     -29.895512      1160.7167 
   10510    10000      3.3708903      2.3030655          50.76     0.74803971     -26.203851     -29.641443      1166.9189 
   10520    10000      3.3354703      2.2763559          50.76      0.7480535     -26.198104     -29.259708      1174.2893 
   10530    10000       3.286172      2.2399748          50.76     0.74806689       -26.1965     -28.732178      1181.9992 
   10540    10000      3.2415214      2.2176098          50.76     0.74807988     -26.339093     -28.224259      1189.9998 
   10550    10000      3.2028124      2.2060858          50.76     0.74809244     -26.502939     -27.771307      1198.0235 
   10560    10000      3.1397124      2.1803933          50.76     0.74810457       -26.6354      -27.30599      1205.8563 
   10570    10000      3.0797029      2.1679991          50.76     0.74811627     -26.732161     -26.754426      1213.4472 
   10580    10000      3.0448983       2.161006          50.76     0.74812753      -26.81055     -26.139283      1220.8411 
   10590    10000      3.0197168      2.1464847          50.76     0.74813834     -26.875977     -25.557692       1228.346 
CFD Coupling established at step 10600
   10600    10000      2.9916936      2.1311041          50.76     0.74814871     -26.922946     -25.082547      1236.0639 
   10601    10000      2.9884388      2.1294124          50.76     0.74814972     -26.928393     -25.041792      1236.8535 
Loop time of 0.0787011 on 4 procs for 100 steps with 10000 atoms, finish time Mon Aug 25 21:14:11 2025


Pair  time (%) = 0.0632236 (80.3339)
Neigh time (%) = 0 (0)
Comm  time (%) = 0.00575047 (7.30673)
Outpt time (%) = 0.00075452 (0.958716)
Other time (%) = 0.00897246 (11.4007)

Nlocal:    2500 ave 2514 max 2484 min
Histogram: 1 0 0 0 0 1 1 0 0 1
Nghost:    1002.75 ave 1014 max 998 min
Histogram: 2 1 0 0 0 0 0 0 0 1
Neighs:    47557.2 ave 47864 max 47161 min
Histogram: 1 0 0 0 0 1 0 1 0 1

Total # of neighbors = 190229
Ave neighs/atom = 19.0229
Neighbor list builds = 0
Dangerous builds = 0
LIGGGHTS finished
get field with name 'radius' at position: 0
get field with name 'x' at position: 1
get field with name 'v' at position: 2

 timeStepFraction() = 1
Zeroizing field with name 'Ksl' at position: 3 with type scalar-atom
Zeroizing field with name 'uf' at position: 4 with type vector-atom
Zeroizing field with name 'dragforce' at position: 5 with type vector-atom
giveData field with name 'Ksl' at position: 3
giveData field with name 'uf' at position: 4
giveData field with name 'dragforce' at position: 5
DILUPBiCG:  Solving for Ux, Initial residual = 0.222939, Final residual = 3.21091e-07, No Iterations 3
DILUPBiCG:  Solving for Uy, Initial residual = 0.22121, Final residual = 7.57045e-06, No Iterations 2
DILUPBiCG:  Solving for Uz, Initial residual = 0.198376, Final residual = 5.51586e-07, No Iterations 3
DICPCG:  Solving for p, Initial residual = 0.0251532, Final residual = 0.00205384, No Iterations 6
DICPCG:  Solving for p, Initial residual = 0.00230822, Final residual = 0.000188853, No Iterations 21
time step continuity errors : sum local = 1.13996e-06, global = -2.40451e-07, cumulative = -3.63251e-07
DICPCG:  Solving for p, Initial residual = 0.00119629, Final residual = 0.000106337, No Iterations 20
DICPCG:  Solving for p, Initial residual = 0.000150321, Final residual = 1.36014e-05, No Iterations 9
time step continuity errors : sum local = 8.41727e-08, global = 3.07834e-08, cumulative = -3.32468e-07
DICPCG:  Solving for p, Initial residual = 7.99033e-05, Final residual = 7.42505e-06, No Iterations 19
DICPCG:  Solving for p, Initial residual = 1.08749e-05, Final residual = 8.06016e-07, No Iterations 9
time step continuity errors : sum local = 4.98806e-09, global = 1.16401e-09, cumulative = -3.31303e-07
DICPCG:  Solving for p, Initial residual = 5.98484e-06, Final residual = 9.80722e-07, No Iterations 7
DICPCG:  Solving for p, Initial residual = 1.17391e-06, Final residual = 7.46386e-07, No Iterations 1
time step continuity errors : sum local = 4.61892e-09, global = -2.74225e-09, cumulative = -3.34046e-07
ExecutionTime = 0.69 s  ClockTime = 0 s

Time = 0.007

Courant Number mean: 0.0015323 max: 0.0242957

 Coupling...
Starting up LIGGGHTS
Executing command: 'run 100    '
run 100    
Setting up run at Mon Aug 25 21:14:11 2025

Memory usage per processor = 11.7164 Mbytes
    Step    Atoms         KinEng            rke         Volume       centerOf       dragtota       dragtota       dragtota 
   10601    10000      2.9884388      2.1294124          50.76     0.74814972     -25.730906     -16.063108      1199.0906 
   10610    10000      2.9495786      2.1039006          50.76     0.74815861     -25.794825     -16.066432      1206.4962 
   10620    10000      2.8871247      2.0658197          50.76     0.74816803     -25.827275     -16.047465      1215.0803 
   10630    10000      2.8435834      2.0458718          50.76     0.74817697     -25.835677     -16.057242       1223.655 
   10640    10000      2.8137081      2.0334583          50.76     0.74818542     -25.820087      -15.95045       1232.217 
   10650    10000      2.7923768      2.0238122          50.76     0.74819339     -25.724708     -15.816381       1240.673 
   10660    10000       2.763635      2.0058699          50.76     0.74820087     -25.651104     -15.631786      1249.1113 
   10670    10000      2.7333437      1.9918958          50.76     0.74820787     -25.460121     -15.472847      1257.4534 
   10680    10000      2.7039779      1.9812093          50.76     0.74821438      -25.17257     -15.310864      1265.4952 
   10690    10000      2.6760158      1.9738416          50.76      0.7482204     -24.828301     -15.126781      1273.3327 
CFD Coupling established at step 10700
   10700    10000      2.6530399      1.9664067          50.76     0.74822594     -24.483835     -14.902208      1280.8975 
   10701    10000      2.6508505      1.9652215          50.76     0.74822647     -24.447956     -14.873564      1281.6398 
Loop time of 0.0791459 on 4 procs for 100 steps with 10000 atoms, finish time Mon Aug 25 21:14:12 2025


Pair  time (%) = 0.0634159 (80.1254)
Neigh time (%) = 0 (0)
Comm  time (%) = 0.00581301 (7.34467)
Outpt time (%) = 0.000875906 (1.1067)
Other time (%) = 0.00904103 (11.4232)

Nlocal:    2500 ave 2514 max 2484 min
Histogram: 1 0 0 0 0 1 1 0 0 1
Nghost:    1002.5 ave 1014 max 997 min
Histogram: 2 0 1 0 0 0 0 0 0 1
Neighs:    47561.8 ave 47869 max 47170 min
Histogram: 1 0 0 0 0 1 0 1 0 1

Total # of neighbors = 190247
Ave neighs/atom = 19.0247
Neighbor list builds = 0
Dangerous builds = 0
LIGGGHTS finished
get field with name 'radius' at position: 0
get field with name 'x' at position: 1
get field with name 'v' at position: 2

 timeStepFraction() = 1
Zeroizing field with name 'Ksl' at position: 3 with type scalar-atom
Zeroizing field with name 'uf' at position: 4 with type vector-atom
Zeroizing field with name 'dragforce' at position: 5 with type vector-atom
giveData field with name 'Ksl' at position: 3
giveData field with name 'uf' at position: 4
giveData field with name 'dragforce' at position: 5
DILUPBiCG:  Solving for Ux, Initial residual = 0.231095, Final residual = 7.81472e-06, No Iterations 2
DILUPBiCG:  Solving for Uy, Initial residual = 0.214623, Final residual = 9.34755e-06, No Iterations 2
DILUPBiCG:  Solving for Uz, Initial residual = 0.194655, Final residual = 3.42948e-07, No Iterations 3
DICPCG:  Solving for p, Initial residual = 0.0201068, Final residual = 0.0019255, No Iterations 7
DICPCG:  Solving for p, Initial residual = 0.00193258, Final residual = 0.000182522, No Iterations 20
time step continuity errors : sum local = 1.26043e-06, global = -4.18772e-09, cumulative = -3.38233e-07
DICPCG:  Solving for p, Initial residual = 0.000926294, Final residual = 8.93841e-05, No Iterations 22
DICPCG:  Solving for p, Initial residual = 0.000133149, Final residual = 1.09136e-05, No Iterations 7
time step continuity errors : sum local = 7.64409e-08, global = 1.77453e-08, cumulative = -3.20488e-07
DICPCG:  Solving for p, Initial residual = 5.70767e-05, Final residual = 5.07582e-06, No Iterations 11
DICPCG:  Solving for p, Initial residual = 7.55407e-06, Final residual = 8.83332e-07, No Iterations 17
time step continuity errors : sum local = 6.187e-09, global = 6.63387e-10, cumulative = -3.19825e-07
DICPCG:  Solving for p, Initial residual = 4.49927e-06, Final residual = 9.13945e-07, No Iterations 3
DICPCG:  Solving for p, Initial residual = 9.99548e-07, Final residual = 9.99548e-07, No Iterations 0
time step continuity errors : sum local = 7.00049e-09, global = -1.70959e-09, cumulative = -3.21534e-07
ExecutionTime = 0.79 s  ClockTime = 1 s

Time = 0.008

Courant Number mean: 0.00149837 max: 0.0268777

 Coupling...
Starting up LIGGGHTS
Executing command: 'run 100    '
run 100    
Setting up run at Mon Aug 25 21:14:12 2025

Memory usage per processor = 11.7164 Mbytes
    Step    Atoms         KinEng            rke         Volume       centerOf       dragtota       dragtota       dragtota 
   10701    10000      2.6508505      1.9652215          50.76     0.74822647     -14.491805     -6.3714927       1258.445 
   10710    10000      2.6321561      1.9555792          50.76       0.748231     -14.353417     -6.2146358      1265.1288 
   10720    10000      2.6151653      1.9457344          50.76     0.74823555     -14.203718     -6.0449198      1272.7743 
   10730    10000      2.6011008      1.9357272          50.76     0.74823961     -14.046612     -5.9399257      1280.2375 
   10740    10000      2.5857049      1.9239018          50.76     0.74824319     -13.873122     -5.8329433      1287.5496 
   10750    10000      2.5695133      1.9120034          50.76     0.74824628     -13.644853     -5.7810726      1294.8353 
   10760    10000      2.5560766      1.8992112          50.76     0.74824889     -13.305262     -5.8052741      1302.0944 
   10770    10000      2.5295737      1.8860015          50.76     0.74825103      -12.93103     -5.9025734      1309.3489 
   10780    10000      2.4964662       1.869761          50.76     0.74825271     -12.609755     -5.9564246      1316.5907 
   10790    10000      2.4757211      1.8597355          50.76     0.74825392     -12.294599     -5.9127503      1323.8622 
CFD Coupling established at step 10800
   10800    10000      2.4600211      1.8498735          50.76     0.74825468     -12.000788     -5.7676967      1331.1154 
   10801    10000      2.4583442      1.8490769          50.76     0.74825473      -11.97415     -5.7506887      1331.8254 
Loop time of 0.0805399 on 4 procs for 100 steps with 10000 atoms, finish time Mon Aug 25 21:14:12 2025


Pair  time (%) = 0.0645792 (80.1828)
Neigh time (%) = 0 (0)
Comm  time (%) = 0.00466078 (5.78692)
Outpt time (%) = 0.000978367 (1.21476)
Other time (%) = 0.0103216 (12.8155)

Nlocal:    2500 ave 2513 max 2485 min
Histogram: 1 0 0 0 0 1 1 0 0 1
Nghost:    1002.5 ave 1014 max 998 min
Histogram: 2 1 0 0 0 0 0 0 0 1
Neighs:    47565 ave 47861 max 47183 min
Histogram: 1 0 0 0 0 1 1 0 0 1

Total # of neighbors = 190260
Ave neighs/atom = 19.026
Neighbor list builds = 0
Dangerous builds = 0
LIGGGHTS finished
get field with name 'radius' at position: 0
get field with name 'x' at position: 1
get field with name 'v' at position: 2

 timeStepFraction() = 1
Zeroizing field with name 'Ksl' at position: 3 with type scalar-atom
Zeroizing field with name 'uf' at position: 4 with type vector-atom
Zeroizing field with name 'dragforce' at position: 5 with type vector-atom
giveData field with name 'Ksl' at position: 3
giveData field with name 'uf' at position: 4
giveData field with name 'dragforce' at position: 5
DILUPBiCG:  Solving for Ux, Initial residual = 0.21812, Final residual = 8.92448e-06, No Iterations 2
DILUPBiCG:  Solving for Uy, Initial residual = 0.203873, Final residual = 8.81554e-06, No Iterations 2
DILUPBiCG:  Solving for Uz, Initial residual = 0.183125, Final residual = 9.24672e-06, No Iterations 2
DICPCG:  Solving for p, Initial residual = 0.0146189, Final residual = 0.00107352, No Iterations 8
DICPCG:  Solving for p, Initial residual = 0.00113633, Final residual = 0.000103973, No Iterations 20
time step continuity errors : sum local = 8.12027e-07, global = -3.49226e-09, cumulative = -3.25027e-07
DICPCG:  Solving for p, Initial residual = 0.00063689, Final residual = 6.35977e-05, No Iterations 9
DICPCG:  Solving for p, Initial residual = 8.49693e-05, Final residual = 7.2249e-06, No Iterations 19
time step continuity errors : sum local = 5.68081e-08, global = 1.02805e-08, cumulative = -3.14746e-07
DICPCG:  Solving for p, Initial residual = 3.77719e-05, Final residual = 3.11155e-06, No Iterations 7
DICPCG:  Solving for p, Initial residual = 4.51078e-06, Final residual = 9.35972e-07, No Iterations 17
time step continuity errors : sum local = 7.35365e-09, global = -3.37389e-10, cumulative = -3.15084e-07
DICPCG:  Solving for p, Initial residual = 3.23046e-06, Final residual = 9.77077e-07, No Iterations 2
DICPCG:  Solving for p, Initial residual = 1.01119e-06, Final residual = 7.61336e-07, No Iterations 1
time step continuity errors : sum local = 5.98149e-09, global = -1.37859e-09, cumulative = -3.16462e-07
ExecutionTime = 0.9 s  ClockTime = 1 s

Time = 0.009

Courant Number mean: 0.00148743 max: 0.0308686

 Coupling...
Starting up LIGGGHTS
Executing command: 'run 100    '
run 100    
Setting up run at Mon Aug 25 21:14:12 2025

Memory usage per processor = 11.7164 Mbytes
    Step    Atoms         KinEng            rke         Volume       centerOf       dragtota       dragtota       dragtota 
   10801    10000      2.4583442      1.8490769          50.76     0.74825473     -14.180323     -3.4878543      1348.6312 
   10810    10000      2.4339336      1.8363144          50.76     0.74825499     -13.961611     -3.3343451      1354.6798 
   10820    10000      2.3894987      1.8181103          50.76     0.74825488     -13.843317     -3.0205442      1361.9027 
   10830    10000      2.3377622      1.7822868          50.76     0.74825434     -13.834133     -2.5930811      1369.0079 
   10840    10000      2.2969331      1.7648865          50.76     0.74825339     -13.879827     -2.2158361      1375.8466 
   10850    10000      2.2758048       1.756106          50.76     0.74825203     -13.866136     -1.9980867      1382.3833 
   10860    10000      2.2596256      1.7508838          50.76     0.74825026     -13.723192     -1.9061458      1388.6099 
   10870    10000      2.2471285      1.7457574          50.76      0.7482481     -13.515994     -1.8630375      1394.5706 
   10880    10000      2.2294392      1.7334483          50.76     0.74824554     -13.236339     -1.7773155      1400.3211 
   10890    10000      2.2141702      1.7213778          50.76     0.74824261     -12.938287     -1.7516183      1405.9269 
CFD Coupling established at step 10900
   10900    10000      2.1904802      1.7096171          50.76      0.7482393     -12.595958     -1.7967221      1411.3421 
   10901    10000      2.1880892      1.7079678          50.76     0.74823895     -12.562245     -1.8048764      1411.8793 
Loop time of 0.07942 on 4 procs for 100 steps with 10000 atoms, finish time Mon Aug 25 21:14:12 2025


Pair  time (%) = 0.063434 (79.8716)
Neigh time (%) = 0 (0)
Comm  time (%) = 0.0055529 (6.99182)
Outpt time (%) = 0.000963942 (1.21373)
Other time (%) = 0.0094691 (11.9228)

Nlocal:    2500 ave 2513 max 2485 min
Histogram: 1 0 0 0 0 1 1 0 0 1
Nghost:    1003 ave 1015 max 998 min
Histogram: 2 1 0 0 0 0 0 0 0 1
Neighs:    47566.2 ave 47875 max 47181 min
Histogram: 1 0 0 0 0 1 1 0 0 1

Total # of neighbors = 190265
Ave neighs/atom = 19.0265
Neighbor list builds = 0
Dangerous builds = 0
LIGGGHTS finished
get field with name 'radius' at position: 0
get field with name 'x' at position: 1
get field with name 'v' at position: 2

 timeStepFraction() = 1
Zeroizing field with name 'Ksl' at position: 3 with type scalar-atom
Zeroizing field with name 'uf' at position: 4 with type vector-atom
Zeroizing field with name 'dragforce' at position: 5 with type vector-atom
giveData field with name 'Ksl' at position: 3
giveData field with name 'uf' at position: 4
giveData field with name 'dragforce' at position: 5
DILUPBiCG:  Solving for Ux, Initial residual = 0.21249, Final residual = 7.95719e-06, No Iterations 2
DILUPBiCG:  Solving for Uy, Initial residual = 0.208743, Final residual = 6.99462e-06, No Iterations 2
DILUPBiCG:  Solving for Uz, Initial residual = 0.16356, Final residual = 5.73171e-06, No Iterations 2
DICPCG:  Solving for p, Initial residual = 0.0150927, Final residual = 0.000965603, No Iterations 8
DICPCG:  Solving for p, Initial residual = 0.00113863, Final residual = 9.43926e-05, No Iterations 21
time step continuity errors : sum local = 8.03438e-07, global = 2.37759e-08, cumulative = -2.92686e-07
DICPCG:  Solving for p, Initial residual = 0.000680219, Final residual = 6.1299e-05, No Iterations 9
DICPCG:  Solving for p, Initial residual = 0.000102943, Final residual = 9.66606e-06, No Iterations 18
time step continuity errors : sum local = 8.20878e-08, global = -4.61119e-09, cumulative = -2.97297e-07
DICPCG:  Solving for p, Initial residual = 4.78391e-05, Final residual = 4.20177e-06, No Iterations 6
DICPCG:  Solving for p, Initial residual = 6.2753e-06, Final residual = 6.95201e-07, No Iterations 20
time step continuity errors : sum local = 5.90923e-09, global = -7.03297e-10, cumulative = -2.98001e-07
DICPCG:  Solving for p, Initial residual = 4.33073e-06, Final residual = 6.56355e-07, No Iterations 2
DICPCG:  Solving for p, Initial residual = 7.13374e-07, Final residual = 7.13374e-07, No Iterations 0
time step continuity errors : sum local = 6.06398e-09, global = -1.47879e-10, cumulative = -2.98149e-07
ExecutionTime = 1 s  ClockTime = 1 s

Time = 0.01

Courant Number mean: 0.00144175 max: 0.0326384

 Coupling...
Starting up LIGGGHTS
Executing command: 'run 100    '
run 100    
Setting up run at Mon Aug 25 21:14:12 2025

Memory usage per processor = 11.7202 Mbytes
    Step    Atoms         KinEng            rke         Volume       centerOf       dragtota       dragtota       dragtota 
   10901    10000      2.1880892      1.7079678          50.76     0.74823895     -24.607511     -12.080186      1444.5615 
   10910    10000      2.1685858      1.6940698          50.76     0.74823564     -24.124621     -12.038748      1448.8483 
   10920    10000      2.1491236      1.6661398          50.76     0.74823164     -23.542811     -12.044057      1453.8695 
   10930    10000      2.1368679      1.6457415          50.76     0.74822732     -22.950638     -12.024466      1458.8008 
   10940    10000      2.1235284      1.6285882          50.76     0.74822267     -22.375258     -12.065728      1463.7743 
   10950    10000        2.11415      1.6151671          50.76     0.74821771     -21.791213     -12.277102      1468.6405 
   10960    10000      2.1044829       1.597168          50.76     0.74821244     -21.168224     -12.607468      1473.3083 
   10970    10000      2.0959941       1.583119          50.76     0.74820688     -20.574437     -13.074191      1477.8609 
   10980    10000      2.0932078      1.5715981          50.76     0.74820103     -20.005553     -13.573463      1482.2581 
   10990    10000      2.0930573       1.562762          50.76     0.74819491     -19.453938     -14.045215      1486.5243 
CFD Coupling established at step 11000
   11000    10000      2.0926575      1.5550777          50.76     0.74818852     -18.915496      -14.44904      1490.6456 
   11001    10000      2.0919974      1.5541289          50.76     0.74818787     -18.859201     -14.485908      1491.0515 
Loop time of 0.0787564 on 4 procs for 100 steps with 10000 atoms, finish time Mon Aug 25 21:14:12 2025


Pair  time (%) = 0.0631273 (80.1552)
Neigh time (%) = 0 (0)
Comm  time (%) = 0.00557172 (7.07462)
Outpt time (%) = 0.000703623 (0.893416)
Other time (%) = 0.00935375 (11.8768)

Nlocal:    2500 ave 2513 max 2485 min
Histogram: 1 0 0 0 0 1 1 0 0 1
Nghost:    1003 ave 1015 max 998 min
Histogram: 2 1 0 0 0 0 0 0 0 1
Neighs:    47580.2 ave 47881 max 47189 min
Histogram: 1 0 0 0 0 1 0 1 0 1

Total # of neighbors = 190321
Ave neighs/atom = 19.0321
Neighbor list builds = 0
Dangerous builds = 0
LIGGGHTS finished
get field with name 'radius' at position: 0
get field with name 'x' at position: 1
get field with name 'v' at position: 2

 timeStepFraction() = 1
Zeroizing field with name 'Ksl' at position: 3 with type scalar-atom
Zeroizing field with name 'uf' at position: 4 with type vector-atom
Zeroizing field with name 'dragforce' at position: 5 with type vector-atom
giveData field with name 'Ksl' at position: 3
giveData field with name 'uf' at position: 4
giveData field with name 'dragforce' at position: 5
DILUPBiCG:  Solving for Ux, Initial residual = 0.235648, Final residual = 5.98805e-06, No Iterations 2
DILUPBiCG:  Solving for Uy, Initial residual = 0.215238, Final residual = 6.55633e-06, No Iterations 2
DILUPBiCG:  Solving for Uz, Initial residual = 0.130703, Final residual = 6.58402e-06, No Iterations 2
DICPCG:  Solving for p, Initial residual = 0.0118065, Final residual = 0.00109611, No Iterations 7
DICPCG:  Solving for p, Initial residual = 0.00119925, Final residual = 0.000104948, No Iterations 12
time step continuity errors : sum local = 9.38231e-07, global = -5.19094e-07, cumulative = -8.17243e-07
DICPCG:  Solving for p, Initial residual = 0.000574894, Final residual = 4.55221e-05, No Iterations 20
DICPCG:  Solving for p, Initial residual = 6.95173e-05, Final residual = 5.73354e-06, No Iterations 9
time step continuity errors : sum local = 5.14896e-08, global = -7.01916e-09, cumulative = -8.24262e-07
DICPCG:  Solving for p, Initial residual = 3.72284e-05, Final residual = 3.04483e-06, No Iterations 19
DICPCG:  Solving for p, Initial residual = 4.74482e-06, Final residual = 8.34562e-07, No Iterations 6
time step continuity errors : sum local = 7.49334e-09, global = -3.95469e-10, cumulative = -8.24657e-07
DICPCG:  Solving for p, Initial residual = 3.05924e-06, Final residual = 9.32959e-07, No Iterations 2
DICPCG:  Solving for p, Initial residual = 9.84268e-07, Final residual = 9.84268e-07, No Iterations 0
time step continuity errors : sum local = 8.83746e-09, global = 1.70282e-09, cumulative = -8.22954e-07
ExecutionTime = 1.11 s  ClockTime = 1 s

Time = 0.011

Courant Number mean: 0.00141073 max: 0.0333947

 Coupling...
Starting up LIGGGHTS
Executing command: 'run 100    '
run 100    
Setting up run at Mon Aug 25 21:14:12 2025

Memory usage per processor = 11.7202 Mbytes
    Step    Atoms         KinEng            rke         Volume       centerOf       dragtota       dragtota       dragtota 
   11001    10000      2.0919974      1.5541289          50.76     0.74818787     -14.129106     -17.263159       1512.762 
   11010    10000      2.0770939      1.5420952          50.76     0.74818188     -13.752891     -17.469686      1516.1256 
   11020    10000      2.0659267      1.5338562          50.76       0.748175     -13.255422     -17.613719      1520.1119 
   11030    10000      2.0582017      1.5281184          50.76     0.74816789     -12.695665     -17.690641       1524.023 
   11040    10000      2.0577989      1.5246756          50.76     0.74816057     -12.115097      -17.71042      1527.7777 
   11050    10000      2.0624196      1.5217233          50.76     0.74815303       -11.5137     -17.660742      1531.3292 
   11060    10000      2.0621223      1.5123673          50.76     0.74814529      -10.89923     -17.563612      1534.6667 
   11070    10000      2.0601287      1.5035211          50.76     0.74813736     -10.293211     -17.526612      1537.9006 
   11080    10000      2.0632067      1.4980098          50.76     0.74812924     -9.7179824     -17.565025      1541.0616 
   11090    10000      2.0697046      1.4931394          50.76     0.74812094     -9.1928329     -17.590988      1544.0813 
CFD Coupling established at step 11100
   11100    10000       2.076053      1.4845309          50.76     0.74811247     -8.7352302     -17.572823      1547.0258 
   11101    10000      2.0766168       1.483683          50.76     0.74811162     -8.6943922     -17.567153      1547.3169 
Loop time of 0.0802697 on 4 procs for 100 steps with 10000 atoms, finish time Mon Aug 25 21:14:12 2025


Pair  time (%) = 0.063821 (79.5082)
Neigh time (%) = 0 (0)
Comm  time (%) = 0.00504085 (6.2799)
Outpt time (%) = 0.0010582 (1.31831)
Other time (%) = 0.0103497 (12.8936)

Nlocal:    2500 ave 2513 max 2485 min
Histogram: 1 0 0 0 0 1 1 0 0 1
Nghost:    1003 ave 1015 max 998 min
Histogram: 2 1 0 0 0 0 0 0 0 1
Neighs:    47590.5 ave 47901 max 47198 min
Histogram: 1 0 0 0 0 1 1 0 0 1

Total # of neighbors = 190362
Ave neighs/atom = 19.0362
Neighbor list builds = 0
Dangerous builds = 0
LIGGGHTS finished
get field with name 'radius' at position: 0
get field with name 'x' at position: 1
get field with name 'v' at position: 2

 timeStepFraction() = 1
Zeroizing field with name 'Ksl' at position: 3 with type scalar-atom
Zeroizing field with name 'uf' at position: 4 with type vector-atom
Zeroizing field with name 'dragforce' at position: 5 with type vector-atom
giveData field with name 'Ksl' at position: 3
giveData field with name 'uf' at position: 4
giveData field with name 'dragforce' at position: 5
DILUPBiCG:  Solving for Ux, Initial residual = 0.20083, Final residual = 4.83408e-06, No Iterations 2
DILUPBiCG:  Solving for Uy, Initial residual = 0.211887, Final residual = 6.04346e-06, No Iterations 2
DILUPBiCG:  Solving for Uz, Initial residual = 0.10929, Final residual = 5.66286e-06, No Iterations 2
DICPCG:  Solving for p, Initial residual = 0.014493, Final residual = 0.00109763, No Iterations 24
DICPCG:  Solving for p, Initial residual = 0.000637353, Final residual = 6.17598e-05, No Iterations 5
time step continuity errors : sum local = 1.18382e-06, global = -2.0237e-08, cumulative = -8.43191e-07
DICPCG:  Solving for p, Initial residual = 0.00071968, Final residual = 6.16358e-05, No Iterations 23
DICPCG:  Solving for p, Initial residual = 7.35634e-05, Final residual = 5.43329e-06, No Iterations 8
time step continuity errors : sum local = 1.01917e-07, global = 2.28164e-09, cumulative = -8.4091e-07
DICPCG:  Solving for p, Initial residual = 2.97971e-05, Final residual = 2.76993e-06, No Iterations 17
DICPCG:  Solving for p, Initial residual = 3.79475e-06, Final residual = 7.97634e-07, No Iterations 3
time step continuity errors : sum local = 1.49614e-08, global = 1.62674e-09, cumulative = -8.39283e-07
DICPCG:  Solving for p, Initial residual = 2.70346e-06, Final residual = 9.25609e-07, No Iterations 3
DICPCG:  Solving for p, Initial residual = 1.00391e-06, Final residual = 6.925e-07, No Iterations 1
time step continuity errors : sum local = 1.29894e-08, global = 7.8422e-09, cumulative = -8.31441e-07
ExecutionTime = 1.21 s  ClockTime = 1 s

Time = 0.012

Courant Number mean: 0.00230377 max: 0.0358507

 Coupling...
Starting up LIGGGHTS
Executing command: 'run 100    '
run 100    
Setting up run at Mon Aug 25 21:14:12 2025

Memory usage per processor = 11.7202 Mbytes
    Step    Atoms         KinEng            rke         Volume       centerOf       dragtota       dragtota       dragtota 
   11101    10000      2.0766168       1.483683          50.76     0.74811162      -5.109576     -14.679662       1560.641 
   11110    10000      2.0791963      1.4730756          50.76     0.74810385     -4.8684673     -14.707631      1563.0874 
   11120    10000       2.080959      1.4634649          50.76     0.74809507     -4.6473755     -14.666048      1565.8177 
   11130    10000      2.0801086      1.4528794          50.76     0.74808616     -4.4951448     -14.568912      1568.3016 
   11140    10000      2.0740766      1.4195534          50.76     0.74807711     -4.3546527     -14.435474      1570.5827 
   11150    10000      2.0648133      1.3957716          50.76     0.74806794     -4.1321737     -14.278511      1572.8166 
   11160    10000      2.0655077      1.3749365          50.76     0.74805866     -3.8467669      -14.19516      1574.9645 
   11170    10000      2.0632515      1.3577544          50.76     0.74804927     -3.5135723      -14.20275      1577.0932 
   11180    10000       2.055361      1.3448382          50.76     0.74803977     -3.2173462     -14.250871      1579.0747 
   11190    10000      2.0481178      1.3396917          50.76     0.74803019     -2.9867466     -14.314352      1580.7499 
CFD Coupling established at step 11200
   11200    10000      2.0419483      1.3372417          50.76     0.74802052     -2.7041501     -14.396144      1582.1853 
   11201    10000      2.0409944      1.3366622          50.76     0.74801954      -2.670781     -14.403096       1582.317 
Loop time of 0.0787953 on 4 procs for 100 steps with 10000 atoms, finish time Mon Aug 25 21:14:12 2025


Pair  time (%) = 0.0636236 (80.7454)
Neigh time (%) = 0 (0)
Comm  time (%) = 0.00509855 (6.47063)
Outpt time (%) = 0.00069751 (0.885218)
Other time (%) = 0.00937567 (11.8988)

Nlocal:    2500 ave 2513 max 2484 min
Histogram: 1 0 0 0 0 1 1 0 0 1
Nghost:    1003 ave 1014 max 998 min
Histogram: 2 0 1 0 0 0 0 0 0 1
Neighs:    47609 ave 47911 max 47216 min
Histogram: 1 0 0 0 0 1 1 0 0 1

Total # of neighbors = 190436
Ave neighs/atom = 19.0436
Neighbor list builds = 0
Dangerous builds = 0
LIGGGHTS finished
get field with name 'radius' at position: 0
get field with name 'x' at position: 1
get field with name 'v' at position: 2

 timeStepFraction() = 1
Zeroizing field with name 'Ksl' at position: 3 with type scalar-atom
Zeroizing field with name 'uf' at position: 4 with type vector-atom
Zeroizing field with name 'dragforce' at position: 5 with type vector-atom
giveData field with name 'Ksl' at position: 3
giveData field with name 'uf' at position: 4
giveData field with name 'dragforce' at position: 5
DILUPBiCG:  Solving for Ux, Initial residual = 0.143521, Final residual = 4.56944e-06, No Iterations 2
DILUPBiCG:  Solving for Uy, Initial residual = 0.140782, Final residual = 6.14269e-06, No Iterations 2
DILUPBiCG:  Solving for Uz, Initial residual = 0.0991961, Final residual = 8.02138e-07, No Iterations 3
DICPCG:  Solving for p, Initial residual = 0.007634, Final residual = 0.000471641, No Iterations 20
DICPCG:  Solving for p, Initial residual = 0.000665525, Final residual = 5.08843e-05, No Iterations 9
time step continuity errors : sum local = 8.62082e-07, global = 2.42515e-07, cumulative = -5.88926e-07
DICPCG:  Solving for p, Initial residual = 0.000835601, Final residual = 4.85598e-05, No Iterations 24
DICPCG:  Solving for p, Initial residual = 7.01879e-05, Final residual = 6.80336e-06, No Iterations 5
time step continuity errors : sum local = 1.18155e-07, global = 2.41605e-09, cumulative = -5.8651e-07
DICPCG:  Solving for p, Initial residual = 3.89975e-05, Final residual = 3.8675e-06, No Iterations 18
DICPCG:  Solving for p, Initial residual = 5.33767e-06, Final residual = 8.42232e-07, No Iterations 4
time step continuity errors : sum local = 1.4628e-08, global = -1.0791e-09, cumulative = -5.87589e-07
DICPCG:  Solving for p, Initial residual = 3.83178e-06, Final residual = 9.65693e-07, No Iterations 3
DICPCG:  Solving for p, Initial residual = 1.06336e-06, Final residual = 6.6029e-07, No Iterations 1
time step continuity errors : sum local = 1.1468e-08, global = -8.98088e-09, cumulative = -5.9657e-07
ExecutionTime = 1.31 s  ClockTime = 1 s

Time = 0.013

Courant Number mean: 0.00226338 max: 0.0376509

 Coupling...
Starting up LIGGGHTS
Executing command: 'run 100    '
run 100    
Setting up run at Mon Aug 25 21:14:12 2025

Memory usage per processor = 11.7202 Mbytes
    Step    Atoms         KinEng            rke         Volume       centerOf       dragtota       dragtota       dragtota 
   11201    10000      2.0409944      1.3366622          50.76     0.74801954     -11.545966     -22.812136      3024.5614 
   11210    10000       2.023868      1.3319657          50.76     0.74801132     -11.128877     -22.755205      3006.1207 
   11220    10000      2.0103817       1.328088          50.76     0.74800338     -10.652395     -22.682722       2985.354 
   11230    10000      2.0042709       1.324471          50.76     0.74799663     -10.205325      -22.56431      2965.5944 
   11240    10000      1.9997551      1.3182742          50.76     0.74799103     -9.7849639     -22.447812      2946.7656 
   11250    10000      1.9905164      1.3101218          50.76     0.74798653     -9.3568992      -22.33296      2928.9898 
   11260    10000      1.9806034      1.3052995          50.76     0.74798306     -8.9831947     -22.290076      2912.1783 
   11270    10000      1.9756204      1.3014536          50.76     0.74798059     -8.7122729     -22.318061       2896.282 
   11280    10000      1.9740503      1.2957216          50.76     0.74797904     -8.5349988     -22.402199      2881.2738 
   11290    10000      1.9747103      1.2888186          50.76     0.74797839      -8.264724     -22.475336      2867.1119 
CFD Coupling established at step 11300
   11300    10000      1.9770922      1.2831743          50.76     0.74797857     -7.9497421     -22.572383      2853.7897 
   11301    10000      1.9773802      1.2826388          50.76     0.74797863     -7.9187472     -22.580252      2852.5014 
Loop time of 0.0818321 on 4 procs for 100 steps with 10000 atoms, finish time Mon Aug 25 21:14:12 2025


Pair  time (%) = 0.0646136 (78.9588)
Neigh time (%) = 0 (0)
Comm  time (%) = 0.00483778 (5.91184)
Outpt time (%) = 0.00103807 (1.26854)
Other time (%) = 0.0113426 (13.8608)

Nlocal:    2500 ave 2513 max 2484 min
Histogram: 1 0 0 0 0 1 1 0 0 1
Nghost:    1002.5 ave 1013 max 997 min
Histogram: 2 0 0 1 0 0 0 0 0 1
Neighs:    47629 ave 47929 max 47236 min
Histogram: 1 0 0 0 0 1 1 0 0 1

Total # of neighbors = 190516
Ave neighs/atom = 19.0516
Neighbor list builds = 0
Dangerous builds = 0
LIGGGHTS finished
get field with name 'radius' at position: 0
get field with name 'x' at position: 1
get field with name 'v' at position: 2

 timeStepFraction() = 1
Zeroizing field with name 'Ksl' at position: 3 with type scalar-atom
Zeroizing field with name 'uf' at position: 4 with type vector-atom
Zeroizing field with name 'dragforce' at position: 5 with type vector-atom
giveData field with name 'Ksl' at position: 3
giveData field with name 'uf' at position: 4
giveData field with name 'dragforce' at position: 5
DILUPBiCG:  Solving for Ux, Initial residual = 0.133847, Final residual = 2.06777e-07, No Iterations 3
DILUPBiCG:  Solving for Uy, Initial residual = 0.128955, Final residual = 5.93921e-06, No Iterations 2
DILUPBiCG:  Solving for Uz, Initial residual = 0.162154, Final residual = 2.55741e-07, No Iterations 3
DICPCG:  Solving for p, Initial residual = 0.0063166, Final residual = 0.000551215, No Iterations 19
DICPCG:  Solving for p, Initial residual = 0.000656577, Final residual = 5.49219e-05, No Iterations 10
time step continuity errors : sum local = 9.39068e-07, global = -5.21511e-07, cumulative = -1.11808e-06
DICPCG:  Solving for p, Initial residual = 0.000416408, Final residual = 3.58639e-05, No Iterations 20
DICPCG:  Solving for p, Initial residual = 4.99976e-05, Final residual = 4.58093e-06, No Iterations 9
time step continuity errors : sum local = 7.81076e-08, global = 1.3633e-08, cumulative = -1.10445e-06
DICPCG:  Solving for p, Initial residual = 2.60175e-05, Final residual = 2.18429e-06, No Iterations 18
DICPCG:  Solving for p, Initial residual = 3.15293e-06, Final residual = 6.89961e-07, No Iterations 6
time step continuity errors : sum local = 1.17629e-08, global = -3.36578e-10, cumulative = -1.10478e-06
DICPCG:  Solving for p, Initial residual = 2.06684e-06, Final residual = 8.55495e-07, No Iterations 1
DICPCG:  Solving for p, Initial residual = 8.61718e-07, Final residual = 8.61718e-07, No Iterations 0
time step continuity errors : sum local = 1.4691e-08, global = -6.63279e-10, cumulative = -1.10545e-06
ExecutionTime = 1.42 s  ClockTime = 1 s

Time = 0.014

Courant Number mean: 0.00242837 max: 0.0378869

 Coupling...
Starting up LIGGGHTS
Executing command: 'run 100    '
run 100    
Setting up run at Mon Aug 25 21:14:12 2025

Memory usage per processor = 11.7202 Mbytes
    Step    Atoms         KinEng            rke         Volume       centerOf       dragtota       dragtota       dragtota 
   11301    10000      1.9773802      1.2826388          50.76     0.74797863     -10.852821     -21.728402      2827.5966 
   11310    10000      1.9800563      1.2782659          50.76     0.74797952     -10.599256     -21.809508      2817.4194 
   11320    10000      1.9776718      1.2687039          50.76     0.74798118     -10.344395     -21.905381      2806.1518 
   11330    10000       1.968092      1.2611818          50.76     0.74798351     -10.181106     -22.017043      2795.8412 
   11340    10000      1.9549489      1.2585233          50.76     0.74798647     -10.055952     -22.205053      2786.3182 
   11350    10000      1.9430918      1.2509893          50.76     0.74799001      -9.898696     -22.455296      2777.5134 
   11360    10000      1.9309469      1.2363408          50.76      0.7479941     -9.7116715     -22.745077      2769.4779 
   11370    10000      1.9170727      1.2233692          50.76      0.7479987      -9.502493     -22.991789      2762.1562 
   11380    10000      1.9035476      1.2124096          50.76     0.74800378     -9.2800533     -23.179114      2755.4448 
   11390    10000      1.8902037      1.2020983          50.76     0.74800928     -9.0650539     -23.377274      2749.3498 
CFD Coupling established at step 11400
   11400    10000      1.8757044      1.1948155          50.76      0.7480152     -8.8441946     -23.596556      2743.9554 
   11401    10000      1.8744712      1.1939591          50.76     0.74801581     -8.8190064     -23.620977      2743.4654 
Loop time of 0.0914284 on 4 procs for 100 steps with 10000 atoms, finish time Mon Aug 25 21:14:12 2025


Pair  time (%) = 0.0696803 (76.213)
Neigh time (%) = 0 (0)
Comm  time (%) = 0.00453928 (4.96485)
Outpt time (%) = 0.00150075 (1.64145)
Other time (%) = 0.0157081 (17.1807)

Nlocal:    2500 ave 2513 max 2484 min
Histogram: 1 0 0 0 0 1 1 0 0 1
Nghost:    1002.75 ave 1013 max 998 min
Histogram: 2 0 1 0 0 0 0 0 0 1
Neighs:    47647.8 ave 47956 max 47258 min
Histogram: 1 0 0 0 0 1 1 0 0 1

Total # of neighbors = 190591
Ave neighs/atom = 19.0591
Neighbor list builds = 0
Dangerous builds = 0
LIGGGHTS finished
get field with name 'radius' at position: 0
get field with name 'x' at position: 1
get field with name 'v' at position: 2

 timeStepFraction() = 1
Zeroizing field with name 'Ksl' at position: 3 with type scalar-atom
Zeroizing field with name 'uf' at position: 4 with type vector-atom
Zeroizing field with name 'dragforce' at position: 5 with type vector-atom
[...]
DICPCG:  Solving for p, Initial residual = 4.75061e-05, Final residual = 4.0369e-06, No Iterations 22
DICPCG:  Solving for p, Initial residual = 5.28981e-06, Final residual = 9.38739e-07, No Iterations 7
time step continuity errors : sum local = 5.59228e-08, global = 4.80193e-09, cumulative = -1.7782e-07
DICPCG:  Solving for p, Initial residual = 3.41385e-06, Final residual = 9.31616e-07, No Iterations 5
DICPCG:  Solving for p, Initial residual = 9.90077e-07, Final residual = 9.90077e-07, No Iterations 0
time step continuity errors : sum local = 5.89802e-08, global = 1.84082e-08, cumulative = -1.59412e-07
DICPCG:  Solving for p, Initial residual = 1.19339e-06, Final residual = 8.43712e-07, No Iterations 1
DICPCG:  Solving for p, Initial residual = 8.46519e-07, Final residual = 8.46519e-07, No Iterations 0
time step continuity errors : sum local = 5.04282e-08, global = 2.17611e-08, cumulative = -1.37651e-07
ExecutionTime = 10.09 s  ClockTime = 10 s

Time = 0.097

Courant Number mean: 0.00905238 max: 0.0203199

 Coupling...
Starting up LIGGGHTS
Executing command: 'run 100    '
run 100    
Setting up run at Mon Aug 25 21:14:21 2025

Memory usage per processor = 11.7203 Mbytes
    Step    Atoms         KinEng            rke         Volume       centerOf       dragtota       dragtota       dragtota 
   19601    10000      4.0184284     0.38684625          50.76     0.76710038     -64.666317     -76.061522      10144.315 
   19610    10000      4.0293887     0.38713098          50.76     0.76716837     -64.712715     -76.224589      10143.009 
   19620    10000      4.0428456      0.3886923          50.76     0.76724403     -64.781703     -76.397712      10141.285 
   19630    10000      4.0563339     0.39039361          50.76     0.76731981     -64.870136     -76.563917      10139.525 
   19640    10000      4.0698098     0.39220834          50.76     0.76739573     -64.967739     -76.745361      10137.738 
   19650    10000      4.0830805      0.3939034          50.76     0.76747179     -65.077273      -76.94169      10135.916 
   19660    10000      4.0963895      0.3958653          50.76     0.76754797     -65.208672     -77.147975      10134.088 
   19670    10000      4.1088123     0.39713426          50.76     0.76762429      -65.38601     -77.354409      10132.283 
   19680    10000      4.1211727     0.39885704          50.76     0.76770074     -65.608214     -77.577391      10130.437 
   19690    10000      4.1331093     0.40002922          50.76     0.76777732     -65.862811     -77.816269      10128.562 
CFD Coupling established at step 19700
   19700    10000      4.1439943     0.39924277          50.76     0.76785403     -66.131481      -78.05371      10126.707 
   19701    10000       4.145075      0.3992721          50.76     0.76786171     -66.155627     -78.075204      10126.521 
Loop time of 0.0760377 on 4 procs for 100 steps with 10000 atoms, finish time Mon Aug 25 21:14:21 2025


Pair  time (%) = 0.0601286 (79.0773)
Neigh time (%) = 0 (0)
Comm  time (%) = 0.00544019 (7.1546)
Outpt time (%) = 0.000685159 (0.901078)
Other time (%) = 0.0097838 (12.867)

Nlocal:    2500 ave 2519 max 2477 min
Histogram: 1 0 0 0 0 1 1 0 0 1
Nghost:    1006.25 ave 1013 max 1000 min
Histogram: 1 0 1 0 0 0 1 0 0 1
Neighs:    46934.2 ave 47359 max 46376 min
Histogram: 1 0 0 0 0 0 2 0 0 1

Total # of neighbors = 187737
Ave neighs/atom = 18.7737
Neighbor list builds = 0
Dangerous builds = 0
LIGGGHTS finished
get field with name 'radius' at position: 0
get field with name 'x' at position: 1
get field with name 'v' at position: 2

 timeStepFraction() = 1
Zeroizing field with name 'Ksl' at position: 3 with type scalar-atom
Zeroizing field with name 'uf' at position: 4 with type vector-atom
Zeroizing field with name 'dragforce' at position: 5 with type vector-atom
giveData field with name 'Ksl' at position: 3
giveData field with name 'uf' at position: 4
giveData field with name 'dragforce' at position: 5
DILUPBiCG:  Solving for Ux, Initial residual = 0.0499263, Final residual = 1.33386e-06, No Iterations 2
DILUPBiCG:  Solving for Uy, Initial residual = 0.0504324, Final residual = 1.12424e-06, No Iterations 2
DILUPBiCG:  Solving for Uz, Initial residual = 0.0384652, Final residual = 1.39212e-06, No Iterations 2
DICPCG:  Solving for p, Initial residual = 0.00155, Final residual = 0.00015037, No Iterations 2
DICPCG:  Solving for p, Initial residual = 0.000159737, Final residual = 1.48521e-05, No Iterations 25
time step continuity errors : sum local = 8.8462e-07, global = -4.70461e-08, cumulative = -1.84697e-07
DICPCG:  Solving for p, Initial residual = 3.90213e-05, Final residual = 2.35953e-06, No Iterations 19
DICPCG:  Solving for p, Initial residual = 3.9865e-06, Final residual = 9.09236e-07, No Iterations 3
time step continuity errors : sum local = 5.40927e-08, global = 5.93961e-09, cumulative = -1.78758e-07
DICPCG:  Solving for p, Initial residual = 2.93091e-06, Final residual = 9.82726e-07, No Iterations 8
DICPCG:  Solving for p, Initial residual = 1.05062e-06, Final residual = 5.52298e-07, No Iterations 1
time step continuity errors : sum local = 3.28571e-08, global = 1.00517e-08, cumulative = -1.68706e-07
DICPCG:  Solving for p, Initial residual = 6.78152e-07, Final residual = 6.78152e-07, No Iterations 0
DICPCG:  Solving for p, Initial residual = 6.78152e-07, Final residual = 6.78152e-07, No Iterations 0
time step continuity errors : sum local = 4.03444e-08, global = 1.11991e-08, cumulative = -1.57507e-07
ExecutionTime = 10.19 s  ClockTime = 10 s

Time = 0.098

Courant Number mean: 0.00906919 max: 0.0203028

 Coupling...
Starting up LIGGGHTS
Executing command: 'run 100    '
run 100    
Setting up run at Mon Aug 25 21:14:21 2025

Memory usage per processor = 11.7203 Mbytes
    Step    Atoms         KinEng            rke         Volume       centerOf       dragtota       dragtota       dragtota 
   19701    10000       4.145075      0.3992721          50.76     0.76786171     -46.962037     -72.418545       10046.46 
   19710    10000        4.14852     0.39815963          50.76     0.76793084     -47.437188     -72.698336      10045.902 
   19720    10000      4.1546943     0.39867908          50.76      0.7680077     -47.949667     -73.004212      10045.094 
   19730    10000      4.1611899     0.39920556          50.76     0.76808463     -48.411793      -73.29214       10044.23 
   19740    10000      4.1677749     0.39985883          50.76     0.76816162     -48.856265     -73.529272      10043.334 
   19750    10000      4.1733746     0.39970087          50.76     0.76823868     -49.265923     -73.742221      10042.387 
   19760    10000      4.1778752     0.39971058          50.76     0.76831581     -49.634671     -73.940041      10041.411 
   19770    10000       4.182635     0.40011892          50.76     0.76839301     -49.977837     -74.143712      10040.398 
   19780    10000      4.1877236      0.4010254          50.76     0.76847029     -50.303405     -74.355976      10039.354 
   19790    10000      4.1929483     0.40202752          50.76     0.76854763     -50.599598     -74.594829      10038.303 
CFD Coupling established at step 19800
   19800    10000       4.198376     0.40304744          50.76     0.76862504     -50.871508     -74.866173      10037.233 
   19801    10000      4.1989348     0.40315628          50.76     0.76863279     -50.896662     -74.894547      10037.124 
Loop time of 0.0785872 on 4 procs for 100 steps with 10000 atoms, finish time Mon Aug 25 21:14:21 2025


Pair  time (%) = 0.0614156 (78.1497)
Neigh time (%) = 0 (0)
Comm  time (%) = 0.00471002 (5.99337)
Outpt time (%) = 0.00125169 (1.59274)
Other time (%) = 0.0112098 (14.2642)

Nlocal:    2500 ave 2519 max 2477 min
Histogram: 1 0 0 0 0 1 1 0 0 1
Nghost:    1006.25 ave 1013 max 1000 min
Histogram: 1 0 1 0 0 0 1 0 0 1
Neighs:    46894.8 ave 47313 max 46319 min
Histogram: 1 0 0 0 0 0 2 0 0 1

Total # of neighbors = 187579
Ave neighs/atom = 18.7579
Neighbor list builds = 0
Dangerous builds = 0
LIGGGHTS finished
get field with name 'radius' at position: 0
get field with name 'x' at position: 1
get field with name 'v' at position: 2

 timeStepFraction() = 1
Zeroizing field with name 'Ksl' at position: 3 with type scalar-atom
Zeroizing field with name 'uf' at position: 4 with type vector-atom
Zeroizing field with name 'dragforce' at position: 5 with type vector-atom
giveData field with name 'Ksl' at position: 3
giveData field with name 'uf' at position: 4
giveData field with name 'dragforce' at position: 5
DILUPBiCG:  Solving for Ux, Initial residual = 0.0532574, Final residual = 1.09252e-06, No Iterations 2
DILUPBiCG:  Solving for Uy, Initial residual = 0.0520543, Final residual = 4.77433e-07, No Iterations 2
DILUPBiCG:  Solving for Uz, Initial residual = 0.0428354, Final residual = 1.14364e-06, No Iterations 2
DICPCG:  Solving for p, Initial residual = 0.00176365, Final residual = 0.000154389, No Iterations 2
DICPCG:  Solving for p, Initial residual = 0.000166741, Final residual = 1.44128e-05, No Iterations 12
time step continuity errors : sum local = 8.57329e-07, global = -1.34832e-07, cumulative = -2.92339e-07
DICPCG:  Solving for p, Initial residual = 4.11621e-05, Final residual = 3.80909e-06, No Iterations 20
DICPCG:  Solving for p, Initial residual = 5.00232e-06, Final residual = 8.24791e-07, No Iterations 6
time step continuity errors : sum local = 4.92076e-08, global = -1.05653e-08, cumulative = -3.02904e-07
DICPCG:  Solving for p, Initial residual = 3.37113e-06, Final residual = 9.27287e-07, No Iterations 17
DICPCG:  Solving for p, Initial residual = 9.70427e-07, Final residual = 9.70427e-07, No Iterations 0
time step continuity errors : sum local = 5.78942e-08, global = 3.8146e-09, cumulative = -2.99089e-07
DICPCG:  Solving for p, Initial residual = 1.0904e-06, Final residual = 6.19741e-07, No Iterations 1
DICPCG:  Solving for p, Initial residual = 6.18099e-07, Final residual = 6.18099e-07, No Iterations 0
time step continuity errors : sum local = 3.68748e-08, global = 6.43014e-09, cumulative = -2.92659e-07
ExecutionTime = 10.28 s  ClockTime = 10 s

Time = 0.099

Courant Number mean: 0.00908581 max: 0.0203559

 Coupling...
Starting up LIGGGHTS
Executing command: 'run 100    '
run 100    
Setting up run at Mon Aug 25 21:14:21 2025

Memory usage per processor = 11.7203 Mbytes
    Step    Atoms         KinEng            rke         Volume       centerOf       dragtota       dragtota       dragtota 
   19801    10000      4.1989348     0.40315628          50.76     0.76863279     -41.749751     -69.830837      10024.488 
   19810    10000      4.2024323     0.40300154          50.76     0.76870252      -42.06167     -70.129836      10023.791 
   19820    10000      4.2079222     0.40366668          50.76     0.76878006      -42.39102     -70.480622       10022.85 
   19830    10000      4.2136685     0.40428357          50.76     0.76885766     -42.679558      -70.81693        10021.9 
   19840    10000      4.2196665     0.40457513          50.76     0.76893532     -42.921626       -71.1333      10020.951 
   19850    10000      4.2255847     0.40412255          50.76     0.76901305     -43.130034     -71.421785      10019.974 
   19860    10000      4.2316151     0.40401769          50.76     0.76909084     -43.312489     -71.687848      10018.998 
   19870    10000      4.2377306     0.40412809          50.76      0.7691687     -43.475489     -71.921083      10018.024 
   19880    10000      4.2439909     0.40442318          50.76     0.76924662     -43.623246     -72.137906      10017.026 
   19890    10000      4.2505251     0.40500834          50.76     0.76932461     -43.746714     -72.331132      10016.008 
CFD Coupling established at step 19900
   19900    10000      4.2570711     0.40574119          50.76     0.76940267     -43.849971     -72.501069      10014.985 
   19901    10000      4.2577163     0.40582672          50.76     0.76941047     -43.859228      -72.51716      10014.882 
Loop time of 0.0774763 on 4 procs for 100 steps with 10000 atoms, finish time Mon Aug 25 21:14:21 2025


Pair  time (%) = 0.0613024 (79.1242)
Neigh time (%) = 0 (0)
Comm  time (%) = 0.00450929 (5.82022)
Outpt time (%) = 0.000735484 (0.949303)
Other time (%) = 0.010929 (14.1063)

Nlocal:    2500 ave 2519 max 2478 min
Histogram: 1 0 0 0 1 0 1 0 0 1
Nghost:    1006.25 ave 1012 max 1000 min
Histogram: 1 0 0 1 0 0 0 1 0 1
Neighs:    46858.8 ave 47286 max 46311 min
Histogram: 1 0 0 0 0 1 1 0 0 1

Total # of neighbors = 187435
Ave neighs/atom = 18.7435
Neighbor list builds = 0
Dangerous builds = 0
LIGGGHTS finished
get field with name 'radius' at position: 0
get field with name 'x' at position: 1
get field with name 'v' at position: 2

 timeStepFraction() = 1
Zeroizing field with name 'Ksl' at position: 3 with type scalar-atom
Zeroizing field with name 'uf' at position: 4 with type vector-atom
Zeroizing field with name 'dragforce' at position: 5 with type vector-atom
giveData field with name 'Ksl' at position: 3
giveData field with name 'uf' at position: 4
giveData field with name 'dragforce' at position: 5
DILUPBiCG:  Solving for Ux, Initial residual = 0.0519953, Final residual = 1.11724e-06, No Iterations 2
DILUPBiCG:  Solving for Uy, Initial residual = 0.0523062, Final residual = 7.91741e-07, No Iterations 2
DILUPBiCG:  Solving for Uz, Initial residual = 0.0399014, Final residual = 6.99159e-07, No Iterations 2
DICPCG:  Solving for p, Initial residual = 0.00159867, Final residual = 0.000154016, No Iterations 2
DICPCG:  Solving for p, Initial residual = 0.000165172, Final residual = 1.53724e-05, No Iterations 24
time step continuity errors : sum local = 9.17407e-07, global = -1.86687e-07, cumulative = -4.79346e-07
DICPCG:  Solving for p, Initial residual = 3.96447e-05, Final residual = 3.85594e-06, No Iterations 11
DICPCG:  Solving for p, Initial residual = 5.74792e-06, Final residual = 6.88993e-07, No Iterations 18
time step continuity errors : sum local = 4.12935e-08, global = 4.22276e-10, cumulative = -4.78923e-07
DICPCG:  Solving for p, Initial residual = 2.88854e-06, Final residual = 8.11486e-07, No Iterations 7
DICPCG:  Solving for p, Initial residual = 8.94887e-07, Final residual = 8.94887e-07, No Iterations 0
time step continuity errors : sum local = 5.363e-08, global = 1.37347e-08, cumulative = -4.65189e-07
DICPCG:  Solving for p, Initial residual = 9.93618e-07, Final residual = 9.93618e-07, No Iterations 0
DICPCG:  Solving for p, Initial residual = 9.93618e-07, Final residual = 9.93618e-07, No Iterations 0
time step continuity errors : sum local = 5.95469e-08, global = 1.64385e-08, cumulative = -4.4875e-07
ExecutionTime = 10.38 s  ClockTime = 10 s

Time = 0.1

Courant Number mean: 0.00912291 max: 0.020467

 Coupling...
Starting up LIGGGHTS
Executing command: 'run 100    '
run 100    
Setting up run at Mon Aug 25 21:14:21 2025

Memory usage per processor = 11.7203 Mbytes
    Step    Atoms         KinEng            rke         Volume       centerOf       dragtota       dragtota       dragtota 
   19901    10000      4.2577163     0.40582672          50.76     0.76941047     -45.089947       -69.6544        10033.8 
   19910    10000      4.2638529     0.40514691          50.76     0.76948079     -45.166991     -69.828565      10032.734 
   19920    10000      4.2714313     0.40594882          50.76     0.76955899     -45.248234     -70.012155      10031.331 
   19930    10000      4.2785841     0.40659136          50.76     0.76963728      -45.32321     -70.182157      10029.929 
   19940    10000      4.2865246     0.40762737          50.76     0.76971565     -45.386285     -70.341082      10028.524 
   19950    10000      4.2948255      0.4085333          50.76      0.7697941     -45.452522      -70.49195      10027.109 
   19960    10000      4.3030595     0.40967054          50.76     0.76987264     -45.527049     -70.643303      10025.677 
   19970    10000       4.311179     0.41066695          50.76     0.76995127     -45.612895     -70.792439      10024.268 
   19980    10000      4.3195675     0.41195732          50.76     0.77002998     -45.721315     -70.921941      10022.854 
   19990    10000      4.3280707     0.41312583          50.76     0.77010878     -45.847153     -71.042422      10021.436 
CFD Coupling established at step 20000
   20000    10000      4.3366342     0.41439826          50.76     0.77018766     -45.993096     -71.153963      10020.025 
   20001    10000      4.3374989      0.4145429          50.76     0.77019555     -46.009037     -71.164272      10019.884 
Loop time of 0.0820727 on 4 procs for 100 steps with 10000 atoms, finish time Mon Aug 25 21:14:21 2025


Pair  time (%) = 0.0602167 (73.3699)
Neigh time (%) = 0 (0)
Comm  time (%) = 0.0049986 (6.09046)
Outpt time (%) = 0.00762368 (9.28893)
Other time (%) = 0.00923375 (11.2507)

Nlocal:    2500 ave 2519 max 2478 min
Histogram: 1 0 0 0 1 0 1 0 0 1
Nghost:    1006.25 ave 1012 max 1000 min
Histogram: 1 0 0 1 0 0 0 1 0 1
Neighs:    46822.8 ave 47269 max 46279 min
Histogram: 1 0 0 0 0 1 1 0 0 1

Total # of neighbors = 187291
Ave neighs/atom = 18.7291
Neighbor list builds = 0
Dangerous builds = 0
LIGGGHTS finished
get field with name 'radius' at position: 0
get field with name 'x' at position: 1
get field with name 'v' at position: 2

 timeStepFraction() = 1
Zeroizing field with name 'Ksl' at position: 3 with type scalar-atom
Zeroizing field with name 'uf' at position: 4 with type vector-atom
Zeroizing field with name 'dragforce' at position: 5 with type vector-atom
giveData field with name 'Ksl' at position: 3
giveData field with name 'uf' at position: 4
giveData field with name 'dragforce' at position: 5
DILUPBiCG:  Solving for Ux, Initial residual = 0.0539331, Final residual = 7.10642e-07, No Iterations 2
DILUPBiCG:  Solving for Uy, Initial residual = 0.0532849, Final residual = 5.21485e-07, No Iterations 2
DILUPBiCG:  Solving for Uz, Initial residual = 0.0426341, Final residual = 9.78647e-07, No Iterations 2
DICPCG:  Solving for p, Initial residual = 0.00171843, Final residual = 0.000136205, No Iterations 3
DICPCG:  Solving for p, Initial residual = 0.000149466, Final residual = 1.28213e-05, No Iterations 25
time step continuity errors : sum local = 7.68368e-07, global = -5.78238e-08, cumulative = -5.06574e-07
DICPCG:  Solving for p, Initial residual = 3.76338e-05, Final residual = 3.24175e-06, No Iterations 22
DICPCG:  Solving for p, Initial residual = 4.34474e-06, Final residual = 9.11961e-07, No Iterations 6
time step continuity errors : sum local = 5.43096e-08, global = -4.91161e-09, cumulative = -5.11486e-07
DICPCG:  Solving for p, Initial residual = 2.74752e-06, Final residual = 8.09846e-07, No Iterations 4
DICPCG:  Solving for p, Initial residual = 8.8375e-07, Final residual = 8.8375e-07, No Iterations 0
time step continuity errors : sum local = 5.2629e-08, global = -1.27413e-08, cumulative = -5.24227e-07
DICPCG:  Solving for p, Initial residual = 1.02912e-06, Final residual = 5.81672e-07, No Iterations 1
DICPCG:  Solving for p, Initial residual = 5.81291e-07, Final residual = 5.81291e-07, No Iterations 0
time step continuity errors : sum local = 3.46169e-08, global = -1.36617e-08, cumulative = -5.37889e-07
ExecutionTime = 10.5 s  ClockTime = 10 s

End

==========================
 PROCESSOR LOAD HISTOGRAM
1.000084  0.999953  0.999996  0.999968  	"Global"
0.999971  1.000010  1.000008  1.000011  	"LIGGGHTS"
0.999841  1.000051  1.000026  1.000083  	"Coupling (routines)"
1.004002  0.998347  0.999548  0.998102  	"Flow"
===========================
 RAM USAGE HISTOGRAM in MB
141.382812  140.855469  140.078125  142.464844  	"RSS memory used"
===========================
cfdemCloud destroys UserCFDEM data: radius
cfdemCloud destroys UserCFDEM data: x
cfdemCloud destroys UserCFDEM data: v
cfdemCloud destroys UserCFDEM data: Ksl
cfdemCloud destroys UserCFDEM data: uf
cfdemCloud destroys UserCFDEM data: dragforce
Finalising parallel run
